<?xml version="1.0" encoding="UTF-8"?>

<!-- generated on 06/29/21 14:15:03 by Eclipse SUMO netedit Version 1.8.0
<configuration xmlns:xsi="http://www.w3.org/2001/XMLSchema-instance" xsi:noNamespaceSchemaLocation="http://sumo.dlr.de/xsd/netconvertConfiguration.xsd">

    <input>
        <sumo-net-file value="E:\Abhishek\Capstone%20phase%202\complex\Double\intersection\env.net.xml"/>
    </input>

    <output>
        <output-file value="E:\Abhishek\Capstone%20phase%202\complex\Double\intersection\env.net.xml"/>
    </output>

    <processing>
        <geometry.min-radius.fix.railways value="false"/>
        <geometry.max-grade.fix value="false"/>
        <offset.disable-normalization value="true"/>
        <lefthand value="false"/>
    </processing>

    <junctions>
        <no-turnarounds value="true"/>
        <junctions.corner-detail value="5"/>
        <junctions.limit-turn-speed value="5.5"/>
        <rectangular-lane-cut value="false"/>
    </junctions>

    <pedestrian>
        <walkingareas value="false"/>
    </pedestrian>

    <report>
        <aggregate-warnings value="5"/>
    </report>

</configuration>
-->

<net version="1.6" junctionCornerDetail="5" limitTurnSpeed="5.50" xmlns:xsi="http://www.w3.org/2001/XMLSchema-instance" xsi:noNamespaceSchemaLocation="http://sumo.dlr.de/xsd/net_file.xsd">

    <location netOffset="0.00,0.00" convBoundary="-500.00,-552.11,1350.00,831.62" origBoundary="-10000000000.00,-10000000000.00,10000000000.00,10000000000.00" projParameter="!"/>

    <edge id=":TL1_0" function="internal">
        <lane id=":TL1_0_0" index="0" speed="6.51" length="9.03" shape="-11.20,16.80 -11.55,14.35 -12.60,12.60 -14.35,11.55 -16.80,11.20"/>
    </edge>
    <edge id=":TL1_1" function="internal">
        <lane id=":TL1_1_0" index="0" speed="13.89" length="33.60" shape="-8.00,16.80 -8.00,-16.80"/>
        <lane id=":TL1_1_1" index="1" speed="13.89" length="33.60" shape="-4.80,16.80 -4.80,-16.80"/>
    </edge>
    <edge id=":TL1_3" function="internal">
        <lane id=":TL1_3_0" index="0" speed="11.36" length="29.67" shape="-1.60,16.80 -0.45,8.75 3.00,3.00 8.75,-0.45 16.80,-1.60"/>
    </edge>
    <edge id=":TL1_4" function="internal">
        <lane id=":TL1_4_0" index="0" speed="6.51" length="9.03" shape="16.80,11.20 14.35,11.55 12.60,12.60 11.55,14.35 11.20,16.80"/>
    </edge>
    <edge id=":TL1_5" function="internal">
        <lane id=":TL1_5_0" index="0" speed="13.89" length="33.60" shape="16.80,8.00 -16.80,8.00"/>
        <lane id=":TL1_5_1" index="1" speed="13.89" length="33.60" shape="16.80,4.80 -16.80,4.80"/>
    </edge>
    <edge id=":TL1_7" function="internal">
        <lane id=":TL1_7_0" index="0" speed="11.36" length="29.67" shape="16.80,1.60 8.75,0.45 3.00,-3.00 -0.45,-8.75 -1.60,-16.80"/>
    </edge>
    <edge id=":TL1_8" function="internal">
        <lane id=":TL1_8_0" index="0" speed="6.51" length="9.03" shape="11.20,-16.80 11.55,-14.35 12.60,-12.60 14.35,-11.55 16.80,-11.20"/>
    </edge>
    <edge id=":TL1_9" function="internal">
        <lane id=":TL1_9_0" index="0" speed="13.89" length="33.60" shape="8.00,-16.80 8.00,16.80"/>
        <lane id=":TL1_9_1" index="1" speed="13.89" length="33.60" shape="4.80,-16.80 4.80,16.80"/>
    </edge>
    <edge id=":TL1_11" function="internal">
        <lane id=":TL1_11_0" index="0" speed="11.36" length="29.67" shape="1.60,-16.80 0.45,-8.75 -3.00,-3.00 -8.75,0.45 -16.80,1.60"/>
    </edge>
    <edge id=":TL1_12" function="internal">
        <lane id=":TL1_12_0" index="0" speed="6.51" length="9.03" shape="-16.80,-11.20 -14.35,-11.55 -12.60,-12.60 -11.55,-14.35 -11.20,-16.80"/>
    </edge>
    <edge id=":TL1_13" function="internal">
        <lane id=":TL1_13_0" index="0" speed="13.89" length="33.60" shape="-16.80,-8.00 16.80,-8.00"/>
        <lane id=":TL1_13_1" index="1" speed="13.89" length="33.60" shape="-16.80,-4.80 16.80,-4.80"/>
    </edge>
    <edge id=":TL1_15" function="internal">
        <lane id=":TL1_15_0" index="0" speed="11.36" length="29.67" shape="-16.80,-1.60 -8.75,-0.45 -3.00,3.00 0.45,8.75 1.60,16.80"/>
    </edge>
    <edge id=":TL2_0" function="internal">
        <lane id=":TL2_0_0" index="0" speed="13.89" length="25.31" shape="510.59,26.43 503.63,19.76 498.00,15.01 493.69,12.15 490.70,11.20"/>
    </edge>
    <edge id=":TL2_1" function="internal">
        <lane id=":TL2_1_0" index="0" speed="13.89" length="27.78" shape="512.85,24.16 505.40,17.09 499.23,12.04 494.33,9.01 490.70,8.00"/>
    </edge>
    <edge id=":TL2_2" function="internal">
        <lane id=":TL2_2_0" index="0" speed="11.69" length="44.04" shape="515.11,21.90 508.19,11.68 507.55,2.02 512.93,-6.02 524.04,-11.41"/>
    </edge>
    <edge id=":TL2_3" function="internal">
        <lane id=":TL2_3_0" index="0" speed="10.74" length="36.96" shape="517.37,19.64 511.56,11.06 511.03,2.96 515.54,-3.79 524.86,-8.32"/>
    </edge>
    <edge id=":TL2_4" function="internal">
        <lane id=":TL2_4_0" index="0" speed="5.67" length="9.24" shape="528.18,4.05 525.62,5.11 524.47,6.56 524.74,8.38 526.43,10.59"/>
    </edge>
    <edge id=":TL2_5" function="internal">
        <lane id=":TL2_5_0" index="0" speed="7.40" length="16.80" shape="527.35,0.95 522.69,2.89 520.61,5.52 521.10,8.84 524.16,12.85"/>
    </edge>
    <edge id=":TL2_6" function="internal">
        <lane id=":TL2_6_0" index="0" speed="13.89" length="36.28" shape="526.52,-2.14 516.05,0.94 508.84,3.10 501.51,4.38 490.70,4.80"/>
        <lane id=":TL2_6_1" index="1" speed="13.89" length="36.28" shape="525.69,-5.23 515.47,-2.21 508.42,-0.08 501.27,1.18 490.70,1.60"/>
    </edge>
    <edge id=":TL2_8" function="internal">
        <lane id=":TL2_8_0" index="0" speed="13.89" length="32.93" shape="490.70,-11.20 500.27,-11.61 506.75,-12.83 513.12,-14.83 522.38,-17.59"/>
        <lane id=":TL2_8_1" index="1" speed="13.89" length="32.93" shape="490.70,-8.00 500.52,-8.41 507.17,-9.64 513.70,-11.67 523.21,-14.50"/>
    </edge>
    <edge id=":TL2_10" function="internal">
        <lane id=":TL2_10_0" index="0" speed="13.89" length="37.71" shape="490.70,-4.80 496.88,-3.56 504.14,0.18 512.48,6.40 521.90,15.11"/>
    </edge>
    <edge id=":TL2_11" function="internal">
        <lane id=":TL2_11_0" index="0" speed="13.89" length="35.22" shape="490.70,-1.60 496.24,-0.41 502.92,3.14 510.71,9.07 519.64,17.37"/>
    </edge>
    <edge id=":TL3_0" function="internal">
        <lane id=":TL3_0_0" index="0" speed="13.89" length="32.25" shape="997.24,-131.03 992.66,-122.89 990.50,-116.84 989.14,-110.43 987.00,-101.22"/>
        <lane id=":TL3_0_1" index="1" speed="13.89" length="32.25" shape="994.53,-132.74 989.81,-124.36 987.55,-118.13 986.13,-111.53 983.91,-102.05"/>
    </edge>
    <edge id=":TL3_2" function="internal">
        <lane id=":TL3_2_0" index="0" speed="13.89" length="38.42" shape="991.83,-134.45 985.04,-125.99 978.35,-122.17 970.18,-120.38 958.92,-117.99"/>
    </edge>
    <edge id=":TL3_3" function="internal">
        <lane id=":TL3_3_0" index="0" speed="13.89" length="36.04" shape="989.12,-136.16 982.73,-128.28 976.40,-124.83 968.68,-123.27 958.10,-121.08"/>
    </edge>
    <edge id=":TL3_4" function="internal">
        <lane id=":TL3_4_0" index="0" speed="13.89" length="27.78" shape="954.78,-133.45 962.68,-134.81 968.60,-135.43 973.49,-137.44 978.30,-143.00"/>
        <lane id=":TL3_4_1" index="1" speed="13.89" length="27.78" shape="955.61,-130.35 964.17,-131.93 970.55,-132.78 975.80,-135.15 981.01,-141.29"/>
    </edge>
    <edge id=":TL3_6" function="internal">
        <lane id=":TL3_6_0" index="0" speed="11.69" length="44.04" shape="956.44,-127.26 968.75,-128.15 977.43,-123.87 981.71,-115.19 980.82,-102.88"/>
    </edge>
    <edge id=":TL3_7" function="internal">
        <lane id=":TL3_7_0" index="0" speed="10.74" length="36.96" shape="957.27,-124.17 967.60,-124.91 974.88,-121.32 978.47,-114.04 977.73,-103.71"/>
    </edge>
    <edge id=":TL3_8" function="internal">
        <lane id=":TL3_8_0" index="0" speed="5.67" length="9.24" shape="965.37,-107.02 965.73,-109.77 965.05,-111.49 963.33,-112.17 960.58,-111.81"/>
    </edge>
    <edge id=":TL3_9" function="internal">
        <lane id=":TL3_9_0" index="0" speed="7.40" length="16.80" shape="968.46,-106.19 969.11,-111.20 967.88,-114.32 964.76,-115.55 959.75,-114.90"/>
    </edge>
    <edge id=":TL3_10" function="internal">
        <lane id=":TL3_10_0" index="0" speed="13.89" length="36.11" shape="971.55,-105.36 974.07,-115.95 975.76,-123.29 978.38,-130.22 983.71,-139.58"/>
        <lane id=":TL3_10_1" index="1" speed="13.89" length="36.11" shape="974.64,-104.54 977.08,-114.85 978.70,-122.00 981.24,-128.76 986.42,-137.87"/>
    </edge>
    <edge id=":TL4_0" function="internal">
        <lane id=":TL4_0_0" index="0" speed="8.01" length="15.73" shape="849.77,379.45 847.85,375.18 845.25,372.70 841.97,372.01 838.02,373.10"/>
    </edge>
    <edge id=":TL4_1" function="internal">
        <lane id=":TL4_1_0" index="0" speed="13.89" length="45.16" shape="852.83,378.51 848.68,366.53 844.22,357.74 838.19,349.89 829.39,340.70"/>
    </edge>
    <edge id=":TL4_2" function="internal">
        <lane id=":TL4_2_0" index="0" speed="13.89" length="51.35" shape="855.89,377.58 852.66,364.33 851.65,352.38 852.71,340.39 855.69,327.03"/>
    </edge>
    <edge id=":TL4_3" function="internal">
        <lane id=":TL4_3_0" index="0" speed="10.89" length="35.86" shape="858.95,376.64 857.64,366.57 860.46,359.32 867.09,355.27 877.23,354.77"/>
    </edge>
    <edge id=":TL4_4" function="internal">
        <lane id=":TL4_4_0" index="0" speed="5.79" length="9.15" shape="875.71,367.48 873.02,367.53 871.37,368.45 870.76,370.24 871.19,372.89"/>
    </edge>
    <edge id=":TL4_5" function="internal">
        <lane id=":TL4_5_0" index="0" speed="13.89" length="40.77" shape="876.09,364.31 864.12,363.05 855.74,363.22 847.68,365.41 836.67,370.20"/>
    </edge>
    <edge id=":TL4_6" function="internal">
        <lane id=":TL4_6_0" index="0" speed="13.89" length="51.37" shape="876.47,361.13 863.08,358.57 851.92,354.20 841.83,347.62 831.65,338.44"/>
    </edge>
    <edge id=":TL4_7" function="internal">
        <lane id=":TL4_7_0" index="0" speed="12.85" length="42.41" shape="876.85,357.95 865.15,354.92 858.66,349.10 856.75,340.18 858.78,327.86"/>
    </edge>
    <edge id=":TL4_8" function="internal">
        <lane id=":TL4_8_0" index="0" speed="8.65" length="18.61" shape="871.14,331.17 870.31,336.85 871.23,341.09 873.92,343.88 878.37,345.24"/>
    </edge>
    <edge id=":TL4_9" function="internal">
        <lane id=":TL4_9_0" index="0" speed="13.89" length="44.38" shape="868.05,330.34 865.06,342.60 863.95,352.16 864.92,361.68 868.13,373.83"/>
    </edge>
    <edge id=":TL4_10" function="internal">
        <lane id=":TL4_10_0" index="0" speed="13.89" length="49.60" shape="864.96,329.51 860.35,342.17 853.87,352.68 845.53,361.06 835.33,367.30"/>
    </edge>
    <edge id=":TL4_11" function="internal">
        <lane id=":TL4_11_0" index="0" speed="10.74" length="36.96" shape="861.87,328.69 857.34,338.01 850.59,342.52 842.49,341.99 833.91,336.18"/>
    </edge>
    <edge id=":TL4_12" function="internal">
        <lane id=":TL4_12_0" index="0" speed="5.67" length="9.24" shape="842.96,327.13 845.17,328.81 846.99,329.08 848.44,327.94 849.51,325.37"/>
    </edge>
    <edge id=":TL4_13" function="internal">
        <lane id=":TL4_13_0" index="0" speed="13.89" length="43.15" shape="840.70,329.39 849.70,337.99 857.20,343.32 865.78,346.43 877.99,348.42"/>
    </edge>
    <edge id=":TL4_14" function="internal">
        <lane id=":TL4_14_0" index="0" speed="13.89" length="51.29" shape="838.44,331.65 847.74,341.66 854.86,351.34 860.43,361.95 865.07,374.76"/>
    </edge>
    <edge id=":TL4_15" function="internal">
        <lane id=":TL4_15_0" index="0" speed="11.43" length="38.09" shape="836.18,333.91 843.06,342.74 845.36,350.98 842.51,358.31 833.98,364.39"/>
    </edge>
    <edge id=":TL4_16" function="internal">
        <lane id=":TL4_16_0" index="0" speed="6.67" length="12.11" shape="828.59,352.78 830.64,351.18 831.08,349.01 829.91,346.27 827.13,342.96"/>
    </edge>
    <edge id=":TL4_17" function="internal">
        <lane id=":TL4_17_0" index="0" speed="13.89" length="38.40" shape="829.94,355.69 837.67,350.91 844.03,344.41 849.00,336.17 852.60,326.20"/>
    </edge>
    <edge id=":TL4_18" function="internal">
        <lane id=":TL4_18_0" index="0" speed="13.89" length="47.68" shape="831.29,358.59 843.39,353.61 853.80,351.04 864.55,350.50 877.61,351.60"/>
    </edge>
    <edge id=":TL4_19" function="internal">
        <lane id=":TL4_19_0" index="0" speed="12.42" length="39.40" shape="832.63,361.49 843.41,358.06 851.50,359.23 857.49,365.10 862.01,375.70"/>
    </edge>

    <edge id="A2TL1" from="A" to="TL1" priority="-1" length="500.00">
        <lane id="A2TL1_0" index="0" speed="13.89" length="500.00" shape="-500.00,-11.20 -16.80,-11.20"/>
        <lane id="A2TL1_1" index="1" speed="13.89" length="500.00" shape="-500.00,-8.00 -16.80,-8.00"/>
        <lane id="A2TL1_2" index="2" speed="13.89" length="500.00" shape="-500.00,-4.80 -16.80,-4.80"/>
        <lane id="A2TL1_3" index="3" speed="13.89" length="500.00" shape="-500.00,-1.60 -16.80,-1.60"/>
    </edge>
    <edge id="B2TL1" from="B" to="TL1" priority="-1" length="500.00">
        <lane id="B2TL1_0" index="0" speed="13.89" length="500.00" shape="11.20,-500.00 11.20,-16.80"/>
        <lane id="B2TL1_1" index="1" speed="13.89" length="500.00" shape="8.00,-500.00 8.00,-16.80"/>
        <lane id="B2TL1_2" index="2" speed="13.89" length="500.00" shape="4.80,-500.00 4.80,-16.80"/>
        <lane id="B2TL1_3" index="3" speed="13.89" length="500.00" shape="1.60,-500.00 1.60,-16.80"/>
    </edge>
    <edge id="C2TL1" from="C" to="TL1" priority="-1" length="500.00">
        <lane id="C2TL1_0" index="0" speed="13.89" length="500.00" shape="-11.20,500.00 -11.20,16.80"/>
        <lane id="C2TL1_1" index="1" speed="13.89" length="500.00" shape="-8.00,500.00 -8.00,16.80"/>
        <lane id="C2TL1_2" index="2" speed="13.89" length="500.00" shape="-4.80,500.00 -4.80,16.80"/>
        <lane id="C2TL1_3" index="3" speed="13.89" length="500.00" shape="-1.60,500.00 -1.60,16.80"/>
    </edge>
    <edge id="D2TL4" from="D" to="TL4" priority="-1" length="500.00">
        <lane id="D2TL4_0" index="0" speed="13.89" length="500.00" shape="395.29,553.84 828.59,352.78"/>
        <lane id="D2TL4_1" index="1" speed="13.89" length="500.00" shape="396.63,556.74 829.94,355.69"/>
        <lane id="D2TL4_2" index="2" speed="13.89" length="500.00" shape="397.98,559.65 831.29,358.59"/>
        <lane id="D2TL4_3" index="3" speed="13.89" length="500.00" shape="399.33,562.55 832.63,361.49"/>
    </edge>
    <edge id="E2TL4" from="E" to="TL4" priority="-1" length="500.00">
        <lane id="E2TL4_0" index="0" speed="13.89" length="500.00" shape="989.29,834.90 849.77,379.45"/>
        <lane id="E2TL4_1" index="1" speed="13.89" length="500.00" shape="992.35,833.96 852.83,378.51"/>
        <lane id="E2TL4_2" index="2" speed="13.89" length="500.00" shape="995.41,833.03 855.89,377.58"/>
        <lane id="E2TL4_3" index="3" speed="13.89" length="500.00" shape="998.47,832.09 858.95,376.64"/>
    </edge>
    <edge id="F2TL4" from="F" to="TL4" priority="-1" length="500.00">
        <lane id="F2TL4_0" index="0" speed="13.89" length="500.00" shape="1348.67,424.12 875.71,367.48"/>
        <lane id="F2TL4_1" index="1" speed="13.89" length="500.00" shape="1349.05,420.94 876.09,364.31"/>
        <lane id="F2TL4_2" index="2" speed="13.89" length="500.00" shape="1349.43,417.77 876.47,361.13"/>
        <lane id="F2TL4_3" index="3" speed="13.89" length="500.00" shape="1349.81,414.59 876.85,357.95"/>
    </edge>
    <edge id="G2TL3" from="G" to="TL3" priority="-1" length="500.00">
        <lane id="G2TL3_0" index="0" speed="13.89" length="500.00" shape="1259.47,-546.13 997.24,-131.03"/>
        <lane id="G2TL3_1" index="1" speed="13.89" length="500.00" shape="1256.76,-547.84 994.53,-132.74"/>
        <lane id="G2TL3_2" index="2" speed="13.89" length="500.00" shape="1254.06,-549.55 991.83,-134.45"/>
        <lane id="G2TL3_3" index="3" speed="13.89" length="500.00" shape="1251.35,-551.26 989.12,-136.16"/>
    </edge>
    <edge id="TL12A" from="TL1" to="A" priority="-1" length="500.00">
        <lane id="TL12A_0" index="0" speed="13.89" length="500.00" shape="-16.80,11.20 -500.00,11.20"/>
        <lane id="TL12A_1" index="1" speed="13.89" length="500.00" shape="-16.80,8.00 -500.00,8.00"/>
        <lane id="TL12A_2" index="2" speed="13.89" length="500.00" shape="-16.80,4.80 -500.00,4.80"/>
        <lane id="TL12A_3" index="3" speed="13.89" length="500.00" shape="-16.80,1.60 -500.00,1.60"/>
    </edge>
    <edge id="TL12B" from="TL1" to="B" priority="-1" length="500.00">
        <lane id="TL12B_0" index="0" speed="13.89" length="500.00" shape="-11.20,-16.80 -11.20,-500.00"/>
        <lane id="TL12B_1" index="1" speed="13.89" length="500.00" shape="-8.00,-16.80 -8.00,-500.00"/>
        <lane id="TL12B_2" index="2" speed="13.89" length="500.00" shape="-4.80,-16.80 -4.80,-500.00"/>
        <lane id="TL12B_3" index="3" speed="13.89" length="500.00" shape="-1.60,-16.80 -1.60,-500.00"/>
    </edge>
    <edge id="TL12C" from="TL1" to="C" priority="-1" length="500.00">
        <lane id="TL12C_0" index="0" speed="13.89" length="500.00" shape="11.20,16.80 11.20,500.00"/>
        <lane id="TL12C_1" index="1" speed="13.89" length="500.00" shape="8.00,16.80 8.00,500.00"/>
        <lane id="TL12C_2" index="2" speed="13.89" length="500.00" shape="4.80,16.80 4.80,500.00"/>
        <lane id="TL12C_3" index="3" speed="13.89" length="500.00" shape="1.60,16.80 1.60,500.00"/>
    </edge>
    <edge id="TL12TL2" from="TL1" to="TL2" priority="-1" length="500.00">
        <lane id="TL12TL2_0" index="0" speed="13.89" length="500.00" shape="16.80,-11.20 490.70,-11.20"/>
        <lane id="TL12TL2_1" index="1" speed="13.89" length="500.00" shape="16.80,-8.00 490.70,-8.00"/>
        <lane id="TL12TL2_2" index="2" speed="13.89" length="500.00" shape="16.80,-4.80 490.70,-4.80"/>
        <lane id="TL12TL2_3" index="3" speed="13.89" length="500.00" shape="16.80,-1.60 490.70,-1.60"/>
    </edge>
    <edge id="TL22TL1" from="TL2" to="TL1" priority="-1" length="500.00">
        <lane id="TL22TL1_0" index="0" speed="13.89" length="500.00" shape="490.70,11.20 16.80,11.20"/>
        <lane id="TL22TL1_1" index="1" speed="13.89" length="500.00" shape="490.70,8.00 16.80,8.00"/>
        <lane id="TL22TL1_2" index="2" speed="13.89" length="500.00" shape="490.70,4.80 16.80,4.80"/>
        <lane id="TL22TL1_3" index="3" speed="13.89" length="500.00" shape="490.70,1.60 16.80,1.60"/>
    </edge>
    <edge id="TL22TL3" from="TL2" to="TL3" priority="-1" length="500.00">
        <lane id="TL22TL3_0" index="0" speed="13.89" length="500.00" shape="522.38,-17.59 954.78,-133.45"/>
        <lane id="TL22TL3_1" index="1" speed="13.89" length="500.00" shape="523.21,-14.50 955.61,-130.35"/>
        <lane id="TL22TL3_2" index="2" speed="13.89" length="500.00" shape="524.04,-11.41 956.44,-127.26"/>
        <lane id="TL22TL3_3" index="3" speed="13.89" length="500.00" shape="524.86,-8.32 957.27,-124.17"/>
    </edge>
    <edge id="TL22TL4" from="TL2" to="TL4" priority="-1" length="500.00">
        <lane id="TL22TL4_0" index="0" speed="13.89" length="500.00" shape="526.43,10.59 842.96,327.13"/>
        <lane id="TL22TL4_1" index="1" speed="13.89" length="500.00" shape="524.16,12.85 840.70,329.39"/>
        <lane id="TL22TL4_2" index="2" speed="13.89" length="500.00" shape="521.90,15.11 838.44,331.65"/>
        <lane id="TL22TL4_3" index="3" speed="13.89" length="500.00" shape="519.64,17.37 836.18,333.91"/>
    </edge>
    <edge id="TL32G" from="TL3" to="G" priority="-1" length="500.00">
        <lane id="TL32G_0" index="0" speed="13.89" length="500.00" shape="978.30,-143.00 1240.53,-558.09"/>
        <lane id="TL32G_1" index="1" speed="13.89" length="500.00" shape="981.01,-141.29 1243.24,-556.38"/>
        <lane id="TL32G_2" index="2" speed="13.89" length="500.00" shape="983.71,-139.58 1245.94,-554.67"/>
        <lane id="TL32G_3" index="3" speed="13.89" length="500.00" shape="986.42,-137.87 1248.65,-552.96"/>
    </edge>
    <edge id="TL32TL2" from="TL3" to="TL2" priority="-1" length="500.00">
        <lane id="TL32TL2_0" index="0" speed="13.89" length="500.00" shape="960.58,-111.81 528.18,4.05"/>
        <lane id="TL32TL2_1" index="1" speed="13.89" length="500.00" shape="959.75,-114.90 527.35,0.95"/>
        <lane id="TL32TL2_2" index="2" speed="13.89" length="500.00" shape="958.92,-117.99 526.52,-2.14"/>
        <lane id="TL32TL2_3" index="3" speed="13.89" length="500.00" shape="958.10,-121.08 525.69,-5.23"/>
    </edge>
    <edge id="TL32TL4" from="TL3" to="TL4" priority="-1" length="500.00">
        <lane id="TL32TL4_0" index="0" speed="13.89" length="500.00" shape="987.00,-101.22 871.14,331.17"/>
        <lane id="TL32TL4_1" index="1" speed="13.89" length="500.00" shape="983.91,-102.05 868.05,330.34"/>
        <lane id="TL32TL4_2" index="2" speed="13.89" length="500.00" shape="980.82,-102.88 864.96,329.51"/>
        <lane id="TL32TL4_3" index="3" speed="13.89" length="500.00" shape="977.73,-103.71 861.87,328.69"/>
    </edge>
    <edge id="TL42D" from="TL4" to="D" priority="-1" length="500.00">
        <lane id="TL42D_0" index="0" speed="13.89" length="500.00" shape="838.02,373.10 404.71,574.16"/>
        <lane id="TL42D_1" index="1" speed="13.89" length="500.00" shape="836.67,370.20 403.37,571.26"/>
        <lane id="TL42D_2" index="2" speed="13.89" length="500.00" shape="835.33,367.30 402.02,568.35"/>
        <lane id="TL42D_3" index="3" speed="13.89" length="500.00" shape="833.98,364.39 400.67,565.45"/>
    </edge>
    <edge id="TL42E" from="TL4" to="E" priority="-1" length="500.00">
        <lane id="TL42E_0" index="0" speed="13.89" length="500.00" shape="871.19,372.89 1010.71,828.34"/>
        <lane id="TL42E_1" index="1" speed="13.89" length="500.00" shape="868.13,373.83 1007.65,829.28"/>
        <lane id="TL42E_2" index="2" speed="13.89" length="500.00" shape="865.07,374.76 1004.59,830.21"/>
        <lane id="TL42E_3" index="3" speed="13.89" length="500.00" shape="862.01,375.70 1001.53,831.15"/>
    </edge>
    <edge id="TL42F" from="TL4" to="F" priority="-1" length="500.00">
        <lane id="TL42F_0" index="0" speed="13.89" length="500.00" shape="878.37,345.24 1351.33,401.88"/>
        <lane id="TL42F_1" index="1" speed="13.89" length="500.00" shape="877.99,348.42 1350.95,405.06"/>
        <lane id="TL42F_2" index="2" speed="13.89" length="500.00" shape="877.61,351.60 1350.57,408.23"/>
        <lane id="TL42F_3" index="3" speed="13.89" length="500.00" shape="877.23,354.77 1350.19,411.41"/>
    </edge>
    <edge id="TL42TL2" from="TL4" to="TL2" priority="-1" length="500.00">
        <lane id="TL42TL2_0" index="0" speed="13.89" length="500.00" shape="827.13,342.96 510.59,26.43"/>
        <lane id="TL42TL2_1" index="1" speed="13.89" length="500.00" shape="829.39,340.70 512.85,24.16"/>
        <lane id="TL42TL2_2" index="2" speed="13.89" length="500.00" shape="831.65,338.44 515.11,21.90"/>
        <lane id="TL42TL2_3" index="3" speed="13.89" length="500.00" shape="833.91,336.18 517.37,19.64"/>
    </edge>
    <edge id="TL42TL3" from="TL4" to="TL3" priority="-1" length="500.00">
        <lane id="TL42TL3_0" index="0" speed="13.89" length="500.00" shape="849.51,325.37 965.37,-107.02"/>
        <lane id="TL42TL3_1" index="1" speed="13.89" length="500.00" shape="852.60,326.20 968.46,-106.19"/>
        <lane id="TL42TL3_2" index="2" speed="13.89" length="500.00" shape="855.69,327.03 971.55,-105.36"/>
        <lane id="TL42TL3_3" index="3" speed="13.89" length="500.00" shape="858.78,327.86 974.64,-104.54"/>
    </edge>

    <tlLogic id="TL1" type="static" programID="4" offset="0">
        <phase duration="100" state="GGGGrrrrrrrrrrrr"/>
        <phase duration="100" state="yyyyrrrrrrrrrrrr"/>
        <phase duration="100" state="rrrrGGGGrrrrrrrr"/>
        <phase duration="100" state="rrrryyyyrrrrrrrr"/>
        <phase duration="100" state="rrrrrrrrGGGGrrrr"/>
        <phase duration="100" state="rrrrrrrryyyyrrrr"/>
        <phase duration="100" state="rrrrrrrrrrrrGGGG"/>
        <phase duration="100" state="rrrrrrrrrrrryyyy"/>
    </tlLogic>
    <tlLogic id="TL2" type="static" programID="0" offset="0">
        <phase duration="100" state="GGGGrrrrrrrr"/>
        <phase duration="100" state="yyyyrrrrrrrr"/>
        <phase duration="100" state="rrrrGGGGrrrr"/>
        <phase duration="100" state="rrrryyyyrrrr"/>
        <phase duration="100" state="rrrrrrrrGGGG"/>
        <phase duration="100" state="rrrrrrrryyyy"/>
    </tlLogic>
    <tlLogic id="TL3" type="static" programID="0" offset="0">
        <phase duration="100" state="GGGGrrrrrrrr"/>
        <phase duration="100" state="yyyyrrrrrrrr"/>
        <phase duration="100" state="rrrrGGGGrrrr"/>
        <phase duration="100" state="rrrryyyyrrrr"/>
        <phase duration="100" state="rrrrrrrrGGGG"/>
        <phase duration="100" state="rrrrrrrryyyy"/>
    </tlLogic>
    <tlLogic id="TL4" type="static" programID="0" offset="0">
        <phase duration="100" state="GGGGrrrrrrrrrrrrrrrr"/>
        <phase duration="100" state="yyyyrrrrrrrrrrrrrrrr"/>
        <phase duration="100" state="rrrrGGGGrrrrrrrrrrrr"/>
        <phase duration="100" state="rrrryyyyrrrrrrrrrrrr"/>
        <phase duration="100" state="rrrrrrrrGGGGrrrrrrrr"/>
        <phase duration="100" state="rrrrrrrryyyyrrrrrrrr"/>
        <phase duration="100" state="rrrrrrrrrrrrGGGGrrrr"/>
        <phase duration="100" state="rrrrrrrrrrrryyyyrrrr"/>
        <phase duration="100" state="rrrrrrrrrrrrrrrrGGGG"/>
        <phase duration="100" state="rrrrrrrrrrrrrrrryyyy"/>
    </tlLogic>

    <junction id="A" type="dead_end" x="-500.00" y="0.00" incLanes="TL12A_0 TL12A_1 TL12A_2 TL12A_3" intLanes="" shape="-500.00,0.00 -500.00,12.80 -500.00,0.00"/>
    <junction id="B" type="dead_end" x="0.00" y="-500.00" incLanes="TL12B_0 TL12B_1 TL12B_2 TL12B_3" intLanes="" shape="0.00,-500.00 -12.80,-500.00 0.00,-500.00"/>
    <junction id="C" type="dead_end" x="0.00" y="500.00" incLanes="TL12C_0 TL12C_1 TL12C_2 TL12C_3" intLanes="" shape="0.00,500.00 12.80,500.00 0.00,500.00"/>
    <junction id="D" type="dead_end" x="400.00" y="564.00" incLanes="TL42D_0 TL42D_1 TL42D_2 TL42D_3" intLanes="" shape="400.00,564.00 405.39,575.61 400.00,564.00"/>
    <junction id="E" type="dead_end" x="1000.00" y="831.62" incLanes="TL42E_0 TL42E_1 TL42E_2 TL42E_3" intLanes="" shape="1000.00,831.62 1012.24,827.87 1000.00,831.62"/>
    <junction id="F" type="dead_end" x="1350.00" y="413.00" incLanes="TL42F_0 TL42F_1 TL42F_2 TL42F_3" intLanes="" shape="1350.00,413.00 1351.52,400.29 1350.00,413.00"/>
    <junction id="G" type="dead_end" x="1250.00" y="-552.11" incLanes="TL32G_0 TL32G_1 TL32G_2 TL32G_3" intLanes="" shape="1250.00,-552.11 1239.18,-558.95 1250.00,-552.11"/>
    <junction id="TL1" type="traffic_light" x="0.00" y="0.00" incLanes="C2TL1_0 C2TL1_1 C2TL1_2 C2TL1_3 TL22TL1_0 TL22TL1_1 TL22TL1_2 TL22TL1_3 B2TL1_0 B2TL1_1 B2TL1_2 B2TL1_3 A2TL1_0 A2TL1_1 A2TL1_2 A2TL1_3" intLanes=":TL1_0_0 :TL1_1_0 :TL1_1_1 :TL1_3_0 :TL1_4_0 :TL1_5_0 :TL1_5_1 :TL1_7_0 :TL1_8_0 :TL1_9_0 :TL1_9_1 :TL1_11_0 :TL1_12_0 :TL1_13_0 :TL1_13_1 :TL1_15_0" shape="-12.80,16.80 12.80,16.80 13.24,14.58 13.80,13.80 14.58,13.24 15.58,12.91 16.80,12.80 16.80,-12.80 14.58,-13.24 13.80,-13.80 13.24,-14.58 12.91,-15.58 12.80,-16.80 -12.80,-16.80 -13.24,-14.58 -13.80,-13.80 -14.58,-13.24 -15.58,-12.91 -16.80,-12.80 -16.80,12.80 -14.58,13.24 -13.80,13.80 -13.24,14.58 -12.91,15.58">
        <request index="0"  response="0000000000000000" foes="0000000000000000" cont="0"/>
        <request index="1"  response="0000000000000000" foes="1110100001100000" cont="0"/>
        <request index="2"  response="0000000000000000" foes="1110100001100000" cont="0"/>
        <request index="3"  response="0000011000000000" foes="1000011011100000" cont="0"/>
        <request index="4"  response="0000000000000000" foes="0000000000000000" cont="0"/>
        <request index="5"  response="0000011000001110" foes="1000011000001110" cont="0"/>
        <request index="6"  response="0000011000001110" foes="1000011000001110" cont="0"/>
        <request index="7"  response="0110111000001000" foes="0110111000001000" cont="0"/>
        <request index="8"  response="0000000000000000" foes="0000000000000000" cont="0"/>
        <request index="9"  response="0000000000000000" foes="0110000011101000" cont="0"/>
        <request index="10" response="0000000000000000" foes="0110000011101000" cont="0"/>
        <request index="11" response="0000000000000110" foes="1110000010000110" cont="0"/>
        <request index="12" response="0000000000000000" foes="0000000000000000" cont="0"/>
        <request index="13" response="0000111000000110" foes="0000111010000110" cont="0"/>
        <request index="14" response="0000111000000110" foes="0000111010000110" cont="0"/>
        <request index="15" response="0000100001101110" foes="0000100001101110" cont="0"/>
    </junction>
    <junction id="TL2" type="traffic_light" x="500.00" y="0.00" incLanes="TL42TL2_0 TL42TL2_1 TL42TL2_2 TL42TL2_3 TL32TL2_0 TL32TL2_1 TL32TL2_2 TL32TL2_3 TL12TL2_0 TL12TL2_1 TL12TL2_2 TL12TL2_3" intLanes=":TL2_0_0 :TL2_1_0 :TL2_2_0 :TL2_3_0 :TL2_4_0 :TL2_5_0 :TL2_6_0 :TL2_6_1 :TL2_8_0 :TL2_8_1 :TL2_10_0 :TL2_11_0" shape="509.45,27.56 527.56,9.45 526.41,7.77 526.40,7.07 526.76,6.48 527.49,5.99 528.59,5.59 521.97,-19.14 515.41,-17.23 510.56,-15.66 506.54,-14.42 502.47,-13.53 497.48,-12.98 490.70,-12.80 490.70,12.80 494.56,14.44 497.39,16.49 500.81,19.36 504.83,23.05">
        <request index="0"  response="000000000000" foes="000000000000" cont="0"/>
        <request index="1"  response="000000000000" foes="000000000000" cont="0"/>
        <request index="2"  response="110011000000" foes="110011000000" cont="0"/>