<routes>

            <vTypeDistribution id="low_priority">
                <vType id="standcar" vClass="passenger" guiShape="passenger" speedDev="0.2" latAlignment="arbitrary" sigma="0.5" probability="0.5" />
                <vType id="bike" vClass="motorcycle" guiShape="motorcycle" speedDev="0.2" latAlignment="arbitrary" sigma="0.5" probability="0.1"/>
                <vType id="bus" vClass="bus" guiShape="truck" speedDev="0.2" latAlignment="arbitrary" sigma="0.5" probability="0.2"/>
                <vType id="taxi" vClass="taxi" guiShape="passenger/sedan" speedDev="0.2" latAlignment="arbitrary" sigma="0.5" color = "255,0,0" probability="0.2"/>
            </vTypeDistribution>
        
            <vTypeDistribution id="high_priority">
                <vType id="amb" vClass="emergency" guiShape="emergency" speedDev="0.2" latAlignment="arbitrary" probability="0.4"><param key="has.bluelight.device" value="true"/></vType>
                <vType id="pol" vClass="authority" guiShape="police" speedDev="0.4" latAlignment="arbitrary" probability="0.4"><param key="has.bluelight.device" value="true"/></vType>
                <vType id="fire" vClass="emergency" guiShape="firebrigade" speedDev="0.4" latAlignment="arbitrary" probability="0.2"><param key="has.bluelight.device" value="true"/></vType>
            </vTypeDistribution>
            
            <route id="A_B" edges="A2TL1 TL12B"/>
            <route id="A_C" edges="A2TL1 TL12C"/>
            <route id="A_D" edges="A2TL1 TL12TL2 TL22TL4 TL42D"/>
            <route id="A_E" edges="A2TL1 TL12TL2 TL22TL4 TL42E"/>
            <route id="A_F" edges="A2TL1 TL12TL2 TL22TL4 TL42F"/>
            <route id="A_G" edges="A2TL1 TL12TL2 TL22TL3 TL32G"/>

            <route id="B_A" edges="B2TL1 TL12A"/>
            <route id="B_C" edges="B2TL1 TL12C"/>
            <route id="B_D" edges="B2TL1 TL12TL2 TL22TL4 TL42D"/>
            <route id="B_E" edges="B2TL1 TL12TL2 TL22TL4 TL42E"/>
            <route id="B_F" edges="B2TL1 TL12TL2 TL22TL4 TL42F"/>
            <route id="B_G" edges="B2TL1 TL12TL2 TL22TL3 TL32G"/>
            
            <route id="C_A" edges="C2TL1 TL12A"/>
            <route id="C_B" edges="C2TL1 TL12B"/>
            <route id="C_D" edges="C2TL1 TL12TL2 TL22TL4 TL42D"/>
            <route id="C_E" edges="C2TL1 TL12TL2 TL22TL4 TL42E"/>
            <route id="C_F" edges="C2TL1 TL12TL2 TL22TL4 TL42F"/>
            <route id="C_G" edges="C2TL1 TL12TL2 TL22TL3 TL32G"/>
            
            <route id="D_A" edges="D2TL4 TL42TL2 TL22TL1 TL12A"/>
            <route id="D_B" edges="D2TL4 TL42TL2 TL22TL1 TL12B"/>
            <route id="D_C" edges="D2TL4 TL42TL2 TL22TL1 TL12C"/>
            <route id="D_E" edges="D2TL4 TL42E"/>
            <route id="D_F" edges="D2TL4 TL42F"/>
            <route id="D_G" edges="D2TL4 TL42TL3 TL32G"/>
            
            <route id="E_A" edges="E2TL4 TL42TL2 TL22TL1 TL12A"/>
            <route id="E_B" edges="E2TL4 TL42TL2 TL22TL1 TL12B"/>
            <route id="E_C" edges="E2TL4 TL42TL2 TL22TL1 TL12C"/>
            <route id="E_D" edges="E2TL4 TL42D"/>
            <route id="E_F" edges="E2TL4 TL42F"/>
            <route id="E_G" edges="E2TL4 TL42TL3 TL32G"/>
            
            <route id="F_A" edges="F2TL4 TL42TL2 TL22TL1 TL12A"/>
            <route id="F_B" edges="F2TL4 TL42TL2 TL22TL1 TL12B"/>
            <route id="F_C" edges="F2TL4 TL42TL2 TL22TL1 TL12C"/>
            <route id="F_D" edges="F2TL4 TL42D"/>
            <route id="F_E" edges="F2TL4 TL42E"/>
            <route id="F_G" edges="F2TL4 TL42TL3 TL32G"/>
            
            <route id="G_A" edges="G2TL3 TL32TL2 TL22TL1 TL12A"/>
            <route id="G_B" edges="G2TL3 TL32TL2 TL22TL1 TL12B"/>
            <route id="G_C" edges="G2TL3 TL32TL2 TL22TL1 TL12C"/>
            <route id="G_D" edges="G2TL3 TL32TL4 TL42D"/>
            <route id="G_E" edges="G2TL3 TL32TL4 TL42E"/>
            <route id="G_F" edges="G2TL3 TL32TL4 TL42F"/>
    <vehicle id="E_D0" type="low_priority" route="E_D" depart="66.0" departLane="random" departSpeed="10" />
    <vehicle id="D_G1" type="low_priority" route="D_G" depart="78.0" departLane="random" departSpeed="10" />
    <vehicle id="D_G2" type="low_priority" route="D_G" depart="123.0" departLane="random" departSpeed="10" />
    <vehicle id="C_G3" type="low_priority" route="C_G" depart="124.0" departLane="random" departSpeed="10" />
    <vehicle id="D_A4" type="low_priority" route="D_A" depart="132.0" departLane="random" departSpeed="10" />
    <vehicle id="G_F5" type="low_priority" route="G_F" depart="142.0" departLane="random" departSpeed="10" />
    <vehicle id="B_A6" type="low_priority" route="B_A" depart="145.0" departLane="random" departSpeed="10" />
    <vehicle id="D_A7" type="low_priority" route="D_A" depart="146.0" departLane="random" departSpeed="10" />
    <vehicle id="E_C8" type="low_priority" route="E_C" depart="185.0" departLane="random" departSpeed="10" />
    <vehicle id="D_B9" type="low_priority" route="D_B" depart="186.0" departLane="random" departSpeed="10" />
    <vehicle id="PC_A10" type="high_priority" route="C_A" depart="188.0" departLane="random" departSpeed="10" />
    <vehicle id="A_C11" type="low_priority" route="A_C" depart="189.0" departLane="random" departSpeed="10" />
    <vehicle id="A_D12" type="low_priority" route="A_D" depart="189.0" departLane="random" departSpeed="10" />
    <vehicle id="D_A13" type="low_priority" route="D_A" depart="202.0" departLane="random" departSpeed="10" />
    <vehicle id="G_A14" type="low_priority" route="G_A" depart="212.0" departLane="random" departSpeed="10" />
    <vehicle id="G_E15" type="low_priority" route="G_E" depart="212.0" departLane="random" departSpeed="10" />
    <vehicle id="G_C16" type="low_priority" route="G_C" depart="222.0" departLane="random" departSpeed="10" />
    <vehicle id="D_F17" type="low_priority" route="D_F" depart="243.0" departLane="random" departSpeed="10" />
    <vehicle id="E_C18" type="low_priority" route="E_C" depart="243.0" departLane="random" departSpeed="10" />
    <vehicle id="PD_F19" type="high_priority" route="D_F" depart="247.0" departLane="random" departSpeed="10" />
    <vehicle id="E_D20" type="low_priority" route="E_D" depart="250.0" departLane="random" departSpeed="10" />
    <vehicle id="G_D21" type="low_priority" route="G_D" depart="267.0" departLane="random" departSpeed="10" />
    <vehicle id="D_A22" type="low_priority" route="D_A" depart="273.0" departLane="random" departSpeed="10" />
    <vehicle id="D_F23" type="low_priority" route="D_F" depart="277.0" departLane="random" departSpeed="10" />
    <vehicle id="F_C24" type="low_priority" route="F_C" depart="289.0" departLane="random" departSpeed="10" />
    <vehicle id="D_B25" type="low_priority" route="D_B" depart="290.0" departLane="random" departSpeed="10" />
    <vehicle id="F_B26" type="low_priority" route="F_B" depart="292.0" departLane="random" departSpeed="10" />
    <vehicle id="E_A27" type="low_priority" route="E_A" depart="294.0" departLane="random" departSpeed="10" />
    <vehicle id="A_G28" type="low_priority" route="A_G" depart="303.0" departLane="random" departSpeed="10" />
    <vehicle id="C_F29" type="low_priority" route="C_F" depart="308.0" departLane="random" departSpeed="10" />
    <vehicle id="B_A30" type="low_priority" route="B_A" depart="313.0" departLane="random" departSpeed="10" />
    <vehicle id="PG_D31" type="high_priority" route="G_D" depart="318.0" departLane="random" departSpeed="10" />
    <vehicle id="G_B32" type="low_priority" route="G_B" depart="322.0" departLane="random" departSpeed="10" />
    <vehicle id="G_A33" type="low_priority" route="G_A" depart="322.0" departLane="random" departSpeed="10" />
    <vehicle id="G_B34" type="low_priority" route="G_B" depart="339.0" departLane="random" departSpeed="10" />
    <vehicle id="B_A35" type="low_priority" route="B_A" depart="342.0" departLane="random" departSpeed="10" />
    <vehicle id="A_D36" type="low_priority" route="A_D" depart="344.0" departLane="random" departSpeed="10" />
    <vehicle id="F_C37" type="low_priority" route="F_C" depart="344.0" departLane="random" departSpeed="10" />
    <vehicle id="F_G38" type="low_priority" route="F_G" depart="352.0" departLane="random" departSpeed="10" />
    <vehicle id="A_D39" type="low_priority" route="A_D" depart="353.0" departLane="random" departSpeed="10" />
    <vehicle id="B_F40" type="low_priority" route="B_F" depart="356.0" departLane="random" departSpeed="10" />
    <vehicle id="C_E41" type="low_priority" route="C_E" depart="364.0" departLane="random" departSpeed="10" />
    <vehicle id="E_D42" type="low_priority" route="E_D" depart="364.0" departLane="random" departSpeed="10" />
    <vehicle id="A_C43" type="low_priority" route="A_C" depart="367.0" departLane="random" departSpeed="10" />
    <vehicle id="C_A44" type="low_priority" route="C_A" depart="370.0" departLane="random" departSpeed="10" />
    <vehicle id="B_F45" type="low_priority" route="B_F" depart="373.0" departLane="random" departSpeed="10" />
    <vehicle id="F_E46" type="low_priority" route="F_E" depart="381.0" departLane="random" departSpeed="10" />
    <vehicle id="F_G47" type="low_priority" route="F_G" depart="385.0" departLane="random" departSpeed="10" />
    <vehicle id="G_B48" type="low_priority" route="G_B" depart="387.0" departLane="random" departSpeed="10" />
    <vehicle id="B_G49" type="low_priority" route="B_G" depart="393.0" departLane="random" departSpeed="10" />
    <vehicle id="D_F50" type="low_priority" route="D_F" depart="400.0" departLane="random" departSpeed="10" />
    <vehicle id="B_F51" type="low_priority" route="B_F" depart="402.0" departLane="random" departSpeed="10" />
    <vehicle id="C_G52" type="low_priority" route="C_G" depart="402.0" departLane="random" departSpeed="10" />
    <vehicle id="E_A53" type="low_priority" route="E_A" depart="404.0" departLane="random" departSpeed="10" />
    <vehicle id="C_B54" type="low_priority" route="C_B" depart="406.0" departLane="random" departSpeed="10" />
    <vehicle id="F_G55" type="low_priority" route="F_G" depart="411.0" departLane="random" departSpeed="10" />
    <vehicle id="F_D56" type="low_priority" route="F_D" depart="413.0" departLane="random" departSpeed="10" />
    <vehicle id="C_B57" type="low_priority" route="C_B" depart="417.0" departLane="random" departSpeed="10" />
    <vehicle id="F_E58" type="low_priority" route="F_E" depart="420.0" departLane="random" departSpeed="10" />
    <vehicle id="D_G59" type="low_priority" route="D_G" depart="420.0" departLane="random" departSpeed="10" />
    <vehicle id="B_F60" type="low_priority" route="B_F" depart="420.0" departLane="random" departSpeed="10" />
    <vehicle id="F_G61" type="low_priority" route="F_G" depart="424.0" departLane="random" departSpeed="10" />
    <vehicle id="E_A62" type="low_priority" route="E_A" depart="433.0" departLane="random" departSpeed="10" />
    <vehicle id="D_G63" type="low_priority" route="D_G" depart="433.0" departLane="random" departSpeed="10" />
    <vehicle id="C_A64" type="low_priority" route="C_A" depart="437.0" departLane="random" departSpeed="10" />
    <vehicle id="D_E65" type="low_priority" route="D_E" depart="444.0" departLane="random" departSpeed="10" />
    <vehicle id="E_D66" type="low_priority" route="E_D" depart="444.0" departLane="random" departSpeed="10" />
    <vehicle id="A_F67" type="low_priority" route="A_F" depart="446.0" departLane="random" departSpeed="10" />
    <vehicle id="D_G68" type="low_priority" route="D_G" depart="449.0" departLane="random" departSpeed="10" />
    <vehicle id="A_B69" type="low_priority" route="A_B" depart="456.0" departLane="random" departSpeed="10" />
    <vehicle id="G_E70" type="low_priority" route="G_E" depart="457.0" departLane="random" departSpeed="10" />
    <vehicle id="G_A71" type="low_priority" route="G_A" depart="461.0" departLane="random" departSpeed="10" />
    <vehicle id="D_C72" type="low_priority" route="D_C" depart="461.0" departLane="random" departSpeed="10" />
    <vehicle id="F_E73" type="low_priority" route="F_E" depart="464.0" departLane="random" departSpeed="10" />
    <vehicle id="PD_G74" type="high_priority" route="D_G" depart="471.0" departLane="random" departSpeed="10" />
    <vehicle id="C_A75" type="low_priority" route="C_A" depart="471.0" departLane="random" departSpeed="10" />
    <vehicle id="E_F76" type="low_priority" route="E_F" depart="472.0" departLane="random" departSpeed="10" />
    <vehicle id="C_G77" type="low_priority" route="C_G" depart="473.0" departLane="random" departSpeed="10" />
    <vehicle id="A_G78" type="low_priority" route="A_G" depart="483.0" departLane="random" departSpeed="10" />
    <vehicle id="E_F79" type="low_priority" route="E_F" depart="485.0" departLane="random" departSpeed="10" />
    <vehicle id="C_G80" type="low_priority" route="C_G" depart="490.0" departLane="random" departSpeed="10" />
    <vehicle id="B_G81" type="low_priority" route="B_G" depart="496.0" departLane="random" departSpeed="10" />
    <vehicle id="PB_F82" type="high_priority" route="B_F" depart="499.0" departLane="random" departSpeed="10" />
    <vehicle id="B_A83" type="low_priority" route="B_A" depart="502.0" departLane="random" departSpeed="10" />
    <vehicle id="B_A84" type="low_priority" route="B_A" depart="504.0" departLane="random" departSpeed="10" />
    <vehicle id="PC_A85" type="high_priority" route="C_A" depart="504.0" departLane="random" departSpeed="10" />
    <vehicle id="G_E86" type="low_priority" route="G_E" depart="505.0" departLane="random" departSpeed="10" />
    <vehicle id="A_C87" type="low_priority" route="A_C" depart="506.0" departLane="random" departSpeed="10" />
    <vehicle id="PC_D88" type="high_priority" route="C_D" depart="507.0" departLane="random" departSpeed="10" />
    <vehicle id="B_G89" type="low_priority" route="B_G" depart="508.0" departLane="random" departSpeed="10" />
    <vehicle id="G_E90" type="low_priority" route="G_E" depart="509.0" departLane="random" departSpeed="10" />
    <vehicle id="F_A91" type="low_priority" route="F_A" depart="515.0" departLane="random" departSpeed="10" />
    <vehicle id="B_C92" type="low_priority" route="B_C" depart="521.0" departLane="random" departSpeed="10" />
    <vehicle id="A_B93" type="low_priority" route="A_B" depart="523.0" departLane="random" departSpeed="10" />
    <vehicle id="E_C94" type="low_priority" route="E_C" depart="523.0" departLane="random" departSpeed="10" />
    <vehicle id="E_C95" type="low_priority" route="E_C" depart="523.0" departLane="random" departSpeed="10" />
    <vehicle id="C_B96" type="low_priority" route="C_B" depart="527.0" departLane="random" departSpeed="10" />
    <vehicle id="PD_A97" type="high_priority" route="D_A" depart="527.0" departLane="random" departSpeed="10" />
    <vehicle id="F_B98" type="low_priority" route="F_B" depart="532.0" departLane="random" departSpeed="10" />
    <vehicle id="C_B99" type="low_priority" route="C_B" depart="536.0" departLane="random" departSpeed="10" />
    <vehicle id="E_F100" type="low_priority" route="E_F" depart="540.0" departLane="random" departSpeed="10" />
    <vehicle id="D_A101" type="low_priority" route="D_A" depart="541.0" departLane="random" departSpeed="10" />
    <vehicle id="A_D102" type="low_priority" route="A_D" depart="544.0" departLane="random" departSpeed="10" />
    <vehicle id="F_C103" type="low_priority" route="F_C" depart="548.0" departLane="random" departSpeed="10" />
    <vehicle id="B_D104" type="low_priority" route="B_D" depart="551.0" departLane="random" departSpeed="10" />
    <vehicle id="D_G105" type="low_priority" route="D_G" depart="559.0" departLane="random" departSpeed="10" />
    <vehicle id="A_D106" type="low_priority" route="A_D" depart="561.0" departLane="random" departSpeed="10" />
    <vehicle id="PG_A107" type="high_priority" route="G_A" depart="561.0" departLane="random" departSpeed="10" />
    <vehicle id="F_C108" type="low_priority" route="F_C" depart="562.0" departLane="random" departSpeed="10" />
    <vehicle id="G_B109" type="low_priority" route="G_B" depart="562.0" departLane="random" departSpeed="10" />
    <vehicle id="G_B110" type="low_priority" route="G_B" depart="565.0" departLane="random" departSpeed="10" />
    <vehicle id="E_D111" type="low_priority" route="E_D" depart="567.0" departLane="random" departSpeed="10" />
    <vehicle id="B_A112" type="low_priority" route="B_A" depart="568.0" departLane="random" departSpeed="10" />
    <vehicle id="D_E113" type="low_priority" route="D_E" depart="570.0" departLane="random" departSpeed="10" />
    <vehicle id="F_B114" type="low_priority" route="F_B" depart="571.0" departLane="random" departSpeed="10" />
    <vehicle id="PF_C115" type="high_priority" route="F_C" depart="577.0" departLane="random" departSpeed="10" />
    <vehicle id="G_B116" type="low_priority" route="G_B" depart="584.0" departLane="random" departSpeed="10" />
    <vehicle id="B_F117" type="low_priority" route="B_F" depart="584.0" departLane="random" departSpeed="10" />
    <vehicle id="C_E118" type="low_priority" route="C_E" depart="590.0" departLane="random" departSpeed="10" />
    <vehicle id="C_A119" type="low_priority" route="C_A" depart="592.0" departLane="random" departSpeed="10" />
    <vehicle id="B_E120" type="low_priority" route="B_E" depart="593.0" departLane="random" departSpeed="10" />
    <vehicle id="C_F121" type="low_priority" route="C_F" depart="593.0" departLane="random" departSpeed="10" />
    <vehicle id="C_A122" type="low_priority" route="C_A" depart="594.0" departLane="random" departSpeed="10" />
    <vehicle id="G_C123" type="low_priority" route="G_C" depart="594.0" departLane="random" departSpeed="10" />
    <vehicle id="B_A124" type="low_priority" route="B_A" depart="596.0" departLane="random" departSpeed="10" />
    <vehicle id="G_C125" type="low_priority" route="G_C" depart="596.0" departLane="random" departSpeed="10" />
    <vehicle id="F_B126" type="low_priority" route="F_B" depart="599.0" departLane="random" departSpeed="10" />
    <vehicle id="B_C127" type="low_priority" route="B_C" depart="599.0" departLane="random" departSpeed="10" />
    <vehicle id="D_A128" type="low_priority" route="D_A" depart="606.0" departLane="random" departSpeed="10" />
    <vehicle id="E_F129" type="low_priority" route="E_F" depart="608.0" departLane="random" departSpeed="10" />
    <vehicle id="C_D130" type="low_priority" route="C_D" depart="609.0" departLane="random" departSpeed="10" />
    <vehicle id="B_F131" type="low_priority" route="B_F" depart="612.0" departLane="random" departSpeed="10" />
    <vehicle id="D_G132" type="low_priority" route="D_G" depart="614.0" departLane="random" departSpeed="10" />
    <vehicle id="E_G133" type="low_priority" route="E_G" depart="614.0" departLane="random" departSpeed="10" />
    <vehicle id="G_B134" type="low_priority" route="G_B" depart="618.0" departLane="random" departSpeed="10" />
    <vehicle id="PF_D135" type="high_priority" route="F_D" depart="623.0" departLane="random" departSpeed="10" />
    <vehicle id="D_B136" type="low_priority" route="D_B" depart="625.0" departLane="random" departSpeed="10" />
    <vehicle id="B_D137" type="low_priority" route="B_D" depart="630.0" departLane="random" departSpeed="10" />
    <vehicle id="D_F138" type="low_priority" route="D_F" depart="632.0" departLane="random" departSpeed="10" />
    <vehicle id="E_G139" type="low_priority" route="E_G" depart="634.0" departLane="random" departSpeed="10" />
    <vehicle id="C_G140" type="low_priority" route="C_G" depart="635.0" departLane="random" departSpeed="10" />
    <vehicle id="B_G141" type="low_priority" route="B_G" depart="636.0" departLane="random" departSpeed="10" />
    <vehicle id="PD_A142" type="high_priority" route="D_A" depart="640.0" departLane="random" departSpeed="10" />
    <vehicle id="B_C143" type="low_priority" route="B_C" depart="643.0" departLane="random" departSpeed="10" />
    <vehicle id="B_E144" type="low_priority" route="B_E" depart="645.0" departLane="random" departSpeed="10" />
    <vehicle id="PG_C145" type="high_priority" route="G_C" depart="645.0" departLane="random" departSpeed="10" />
    <vehicle id="G_A146" type="low_priority" route="G_A" depart="646.0" departLane="random" departSpeed="10" />
    <vehicle id="E_D147" type="low_priority" route="E_D" depart="653.0" departLane="random" departSpeed="10" />
    <vehicle id="G_B148" type="low_priority" route="G_B" depart="654.0" departLane="random" departSpeed="10" />
    <vehicle id="C_E149" type="low_priority" route="C_E" depart="654.0" departLane="random" departSpeed="10" />
    <vehicle id="C_G150" type="low_priority" route="C_G" depart="663.0" departLane="random" departSpeed="10" />
    <vehicle id="F_A151" type="low_priority" route="F_A" depart="663.0" departLane="random" departSpeed="10" />
    <vehicle id="C_D152" type="low_priority" route="C_D" depart="664.0" departLane="random" departSpeed="10" />
    <vehicle id="D_F153" type="low_priority" route="D_F" depart="664.0" departLane="random" departSpeed="10" />
    <vehicle id="B_A154" type="low_priority" route="B_A" depart="669.0" departLane="random" departSpeed="10" />
    <vehicle id="C_F155" type="low_priority" route="C_F" depart="670.0" departLane="random" departSpeed="10" />
    <vehicle id="A_E156" type="low_priority" route="A_E" depart="673.0" departLane="random" departSpeed="10" />
    <vehicle id="A_F157" type="low_priority" route="A_F" depart="683.0" departLane="random" departSpeed="10" />
    <vehicle id="F_G158" type="low_priority" route="F_G" depart="685.0" departLane="random" departSpeed="10" />
    <vehicle id="B_D159" type="low_priority" route="B_D" depart="685.0" departLane="random" departSpeed="10" />
    <vehicle id="PF_A160" type="high_priority" route="F_A" depart="686.0" departLane="random" departSpeed="10" />
    <vehicle id="PB_A161" type="high_priority" route="B_A" depart="686.0" departLane="random" departSpeed="10" />
    <vehicle id="E_D162" type="low_priority" route="E_D" depart="690.0" departLane="random" departSpeed="10" />
    <vehicle id="A_G163" type="low_priority" route="A_G" depart="693.0" departLane="random" departSpeed="10" />
    <vehicle id="E_C164" type="low_priority" route="E_C" depart="694.0" departLane="random" departSpeed="10" />
    <vehicle id="B_F165" type="low_priority" route="B_F" depart="697.0" departLane="random" departSpeed="10" />
    <vehicle id="C_A166" type="low_priority" route="C_A" depart="698.0" departLane="random" departSpeed="10" />
    <vehicle id="C_F167" type="low_priority" route="C_F" depart="699.0" departLane="random" departSpeed="10" />
    <vehicle id="B_G168" type="low_priority" route="B_G" depart="700.0" departLane="random" departSpeed="10" />
    <vehicle id="F_C169" type="low_priority" route="F_C" depart="703.0" departLane="random" departSpeed="10" />
    <vehicle id="G_A170" type="low_priority" route="G_A" depart="704.0" departLane="random" departSpeed="10" />
    <vehicle id="A_F171" type="low_priority" route="A_F" depart="715.0" departLane="random" departSpeed="10" />
    <vehicle id="E_C172" type="low_priority" route="E_C" depart="718.0" departLane="random" departSpeed="10" />
    <vehicle id="B_C173" type="low_priority" route="B_C" depart="722.0" departLane="random" departSpeed="10" />
    <vehicle id="C_D174" type="low_priority" route="C_D" depart="723.0" departLane="random" departSpeed="10" />
    <vehicle id="A_F175" type="low_priority" route="A_F" depart="723.0" departLane="random" departSpeed="10" />
    <vehicle id="PB_D176" type="high_priority" route="B_D" depart="723.0" departLane="random" departSpeed="10" />
    <vehicle id="E_D177" type="low_priority" route="E_D" depart="726.0" departLane="random" departSpeed="10" />
    <vehicle id="B_C178" type="low_priority" route="B_C" depart="728.0" departLane="random" departSpeed="10" />
    <vehicle id="C_A179" type="low_priority" route="C_A" depart="731.0" departLane="random" departSpeed="10" />
    <vehicle id="E_D180" type="low_priority" route="E_D" depart="733.0" departLane="random" departSpeed="10" />
    <vehicle id="G_A181" type="low_priority" route="G_A" depart="734.0" departLane="random" departSpeed="10" />
    <vehicle id="C_A182" type="low_priority" route="C_A" depart="735.0" departLane="random" departSpeed="10" />
    <vehicle id="F_C183" type="low_priority" route="F_C" depart="741.0" departLane="random" departSpeed="10" />
    <vehicle id="G_B184" type="low_priority" route="G_B" depart="744.0" departLane="random" departSpeed="10" />
    <vehicle id="E_D185" type="low_priority" route="E_D" depart="747.0" departLane="random" departSpeed="10" />
    <vehicle id="C_D186" type="low_priority" route="C_D" depart="751.0" departLane="random" departSpeed="10" />
    <vehicle id="B_A187" type="low_priority" route="B_A" depart="751.0" departLane="random" departSpeed="10" />
    <vehicle id="PE_C188" type="high_priority" route="E_C" depart="754.0" departLane="random" departSpeed="10" />
    <vehicle id="C_G189" type="low_priority" route="C_G" depart="755.0" departLane="random" departSpeed="10" />
    <vehicle id="PA_E190" type="high_priority" route="A_E" depart="755.0" departLane="random" departSpeed="10" />
    <vehicle id="A_G191" type="low_priority" route="A_G" depart="761.0" departLane="random" departSpeed="10" />
    <vehicle id="C_A192" type="low_priority" route="C_A" depart="761.0" departLane="random" departSpeed="10" />
    <vehicle id="PE_C193" type="high_priority" route="E_C" depart="762.0" departLane="random" departSpeed="10" />
    <vehicle id="F_A194" type="low_priority" route="F_A" depart="763.0" departLane="random" departSpeed="10" />
    <vehicle id="G_E195" type="low_priority" route="G_E" depart="767.0" departLane="random" departSpeed="10" />
    <vehicle id="PF_A196" type="high_priority" route="F_A" depart="772.0" departLane="random" departSpeed="10" />
    <vehicle id="D_A197" type="low_priority" route="D_A" depart="782.0" departLane="random" departSpeed="10" />
    <vehicle id="F_C198" type="low_priority" route="F_C" depart="782.0" departLane="random" departSpeed="10" />
    <vehicle id="C_E199" type="low_priority" route="C_E" depart="787.0" departLane="random" departSpeed="10" />
    <vehicle id="G_C200" type="low_priority" route="G_C" depart="788.0" departLane="random" departSpeed="10" />
    <vehicle id="D_F201" type="low_priority" route="D_F" depart="789.0" departLane="random" departSpeed="10" />
    <vehicle id="C_D202" type="low_priority" route="C_D" depart="789.0" departLane="random" departSpeed="10" />
    <vehicle id="A_D203" type="low_priority" route="A_D" depart="798.0" departLane="random" departSpeed="10" />
    <vehicle id="F_G204" type="low_priority" route="F_G" depart="800.0" departLane="random" departSpeed="10" />
    <vehicle id="E_C205" type="low_priority" route="E_C" depart="802.0" departLane="random" departSpeed="10" />
    <vehicle id="G_E206" type="low_priority" route="G_E" depart="803.0" departLane="random" departSpeed="10" />
    <vehicle id="G_B207" type="low_priority" route="G_B" depart="803.0" departLane="random" departSpeed="10" />
    <vehicle id="C_E208" type="low_priority" route="C_E" depart="810.0" departLane="random" departSpeed="10" />
    <vehicle id="F_G209" type="low_priority" route="F_G" depart="814.0" departLane="random" departSpeed="10" />
    <vehicle id="C_F210" type="low_priority" route="C_F" depart="815.0" departLane="random" departSpeed="10" />
    <vehicle id="C_D211" type="low_priority" route="C_D" depart="815.0" departLane="random" departSpeed="10" />
    <vehicle id="A_G212" type="low_priority" route="A_G" depart="818.0" departLane="random" departSpeed="10" />
    <vehicle id="F_G213" type="low_priority" route="F_G" depart="821.0" departLane="random" departSpeed="10" />
    <vehicle id="E_F214" type="low_priority" route="E_F" depart="822.0" departLane="random" departSpeed="10" />
    <vehicle id="F_E215" type="low_priority" route="F_E" depart="827.0" departLane="random" departSpeed="10" />
    <vehicle id="A_G216" type="low_priority" route="A_G" depart="830.0" departLane="random" departSpeed="10" />
    <vehicle id="A_B217" type="low_priority" route="A_B" depart="830.0" departLane="random" departSpeed="10" />
    <vehicle id="E_B218" type="low_priority" route="E_B" depart="833.0" departLane="random" departSpeed="10" />
    <vehicle id="A_G219" type="low_priority" route="A_G" depart="833.0" departLane="random" departSpeed="10" />
    <vehicle id="D_C220" type="low_priority" route="D_C" depart="836.0" departLane="random" departSpeed="10" />
    <vehicle id="B_A221" type="low_priority" route="B_A" depart="836.0" departLane="random" departSpeed="10" />
    <vehicle id="E_D222" type="low_priority" route="E_D" depart="836.0" departLane="random" departSpeed="10" />
    <vehicle id="D_E223" type="low_priority" route="D_E" depart="838.0" departLane="random" departSpeed="10" />
    <vehicle id="B_A224" type="low_priority" route="B_A" depart="840.0" departLane="random" departSpeed="10" />
    <vehicle id="B_C225" type="low_priority" route="B_C" depart="843.0" departLane="random" departSpeed="10" />
    <vehicle id="A_C226" type="low_priority" route="A_C" depart="844.0" departLane="random" departSpeed="10" />
    <vehicle id="C_F227" type="low_priority" route="C_F" depart="845.0" departLane="random" departSpeed="10" />
    <vehicle id="A_F228" type="low_priority" route="A_F" depart="846.0" departLane="random" departSpeed="10" />
    <vehicle id="C_A229" type="low_priority" route="C_A" depart="846.0" departLane="random" departSpeed="10" />
    <vehicle id="B_F230" type="low_priority" route="B_F" depart="857.0" departLane="random" departSpeed="10" />
    <vehicle id="B_A231" type="low_priority" route="B_A" depart="858.0" departLane="random" departSpeed="10" />
    <vehicle id="E_F232" type="low_priority" route="E_F" depart="865.0" departLane="random" departSpeed="10" />