<?xml version="1.0" encoding="UTF-8"?>

<!-- generated on 2021-06-30 20:24:40 by Eclipse SUMO netedit Version 1.9.2
<configuration xmlns:xsi="http://www.w3.org/2001/XMLSchema-instance" xsi:noNamespaceSchemaLocation="http://sumo.dlr.de/xsd/netconvertConfiguration.xsd">

    <input>
        <sumo-net-file value="C:\Users\KRISHNA\Downloads\Capstone%20P2\Single_different\intersection\environment.net.xml"/>
    </input>

    <output>
        <output-file value="C:\Users\KRISHNA\Downloads\Capstone%20P2\Single_different\intersection\environment.net.xml"/>
    </output>

    <processing>
        <geometry.min-radius.fix.railways value="false"/>
        <geometry.max-grade.fix value="false"/>
        <offset.disable-normalization value="true"/>
        <lefthand value="false"/>
    </processing>

    <junctions>
        <no-turnarounds value="true"/>
        <junctions.corner-detail value="5"/>
        <junctions.limit-turn-speed value="5.5"/>
        <rectangular-lane-cut value="false"/>
    </junctions>

    <pedestrian>
        <walkingareas value="false"/>
    </pedestrian>

    <report>
        <aggregate-warnings value="5"/>
    </report>

</configuration>
-->

<net version="1.9" junctionCornerDetail="5" limitTurnSpeed="5.50" xmlns:xsi="http://www.w3.org/2001/XMLSchema-instance" xsi:noNamespaceSchemaLocation="http://sumo.dlr.de/xsd/net_file.xsd">

    <location netOffset="0.00,0.00" convBoundary="-500.00,-500.00,500.00,500.00" origBoundary="-10000000000.00,-10000000000.00,10000000000.00,10000000000.00" projParameter="!"/>

    <edge id=":TL_0" function="internal">
        <lane id=":TL_0_0" index="0" speed="6.51" length="9.03" shape="-11.20,16.80 -11.55,14.35 -12.60,12.60 -14.35,11.55 -16.80,11.20"/>
    </edge>
    <edge id=":TL_1" function="internal">
        <lane id=":TL_1_0" index="0" speed="13.89" length="33.60" shape="-8.00,16.80 -8.00,-16.80"/>
        <lane id=":TL_1_1" index="1" speed="13.89" length="33.60" shape="-4.80,16.80 -4.80,-16.80"/>
    </edge>
    <edge id=":TL_3" function="internal">
        <lane id=":TL_3_0" index="0" speed="11.36" length="29.67" shape="-1.60,16.80 -0.45,8.75 3.00,3.00 8.75,-0.45 16.80,-1.60"/>
    </edge>
    <edge id=":TL_4" function="internal">
        <lane id=":TL_4_0" index="0" speed="6.51" length="9.03" shape="16.80,11.20 14.35,11.55 12.60,12.60 11.55,14.35 11.20,16.80"/>
    </edge>
    <edge id=":TL_5" function="internal">
        <lane id=":TL_5_0" index="0" speed="13.89" length="33.60" shape="16.80,8.00 -16.80,8.00"/>
        <lane id=":TL_5_1" index="1" speed="13.89" length="33.60" shape="16.80,4.80 -16.80,4.80"/>
    </edge>
    <edge id=":TL_7" function="internal">
        <lane id=":TL_7_0" index="0" speed="11.36" length="29.67" shape="16.80,1.60 8.75,0.45 3.00,-3.00 -0.45,-8.75 -1.60,-16.80"/>
    </edge>
    <edge id=":TL_8" function="internal">
        <lane id=":TL_8_0" index="0" speed="6.51" length="9.03" shape="11.20,-16.80 11.55,-14.35 12.60,-12.60 14.35,-11.55 16.80,-11.20"/>
    </edge>
    <edge id=":TL_9" function="internal">
        <lane id=":TL_9_0" index="0" speed="13.89" length="33.60" shape="8.00,-16.80 8.00,16.80"/>
        <lane id=":TL_9_1" index="1" speed="13.89" length="33.60" shape="4.80,-16.80 4.80,16.80"/>
    </edge>
    <edge id=":TL_11" function="internal">
        <lane id=":TL_11_0" index="0" speed="11.36" length="29.67" shape="1.60,-16.80 0.45,-8.75 -3.00,-3.00 -8.75,0.45 -16.80,1.60"/>
    </edge>
    <edge id=":TL_12" function="internal">
        <lane id=":TL_12_0" index="0" speed="6.51" length="9.03" shape="-16.80,-11.20 -14.35,-11.55 -12.60,-12.60 -11.55,-14.35 -11.20,-16.80"/>
    </edge>
    <edge id=":TL_13" function="internal">
        <lane id=":TL_13_0" index="0" speed="13.89" length="33.60" shape="-16.80,-8.00 16.80,-8.00"/>
        <lane id=":TL_13_1" index="1" speed="13.89" length="33.60" shape="-16.80,-4.80 16.80,-4.80"/>
    </edge>
    <edge id=":TL_15" function="internal">
        <lane id=":TL_15_0" index="0" speed="11.36" length="29.67" shape="-16.80,-1.60 -8.75,-0.45 -3.00,3.00 0.45,8.75 1.60,16.80"/>
    </edge>

    <edge id="E2TL" from="DE" to="TL" priority="-1" length="500.00">
        <lane id="E2TL_0" index="0" speed="13.89" length="500.00" shape="500.00,11.20 16.80,11.20"/>
        <lane id="E2TL_1" index="1" speed="13.89" length="500.00" shape="500.00,8.00 16.80,8.00"/>
        <lane id="E2TL_2" index="2" speed="13.89" length="500.00" shape="500.00,4.80 16.80,4.80"/>
        <lane id="E2TL_3" index="3" speed="13.89" length="500.00" shape="500.00,1.60 16.80,1.60"/>
    </edge>
    <edge id="N2TL" from="DN" to="TL" priority="-1" length="500.00">
        <lane id="N2TL_0" index="0" speed="13.89" length="500.00" shape="-11.20,500.00 -11.20,16.80"/>
        <lane id="N2TL_1" index="1" speed="13.89" length="500.00" shape="-8.00,500.00 -8.00,16.80"/>
        <lane id="N2TL_2" index="2" speed="13.89" length="500.00" shape="-4.80,500.00 -4.80,16.80"/>
        <lane id="N2TL_3" index="3" speed="13.89" length="500.00" shape="-1.60,500.00 -1.60,16.80"/>
    </edge>
    <edge id="S2TL" from="DS" to="TL" priority="-1" length="500.00">
        <lane id="S2TL_0" index="0" speed="13.89" length="500.00" shape="11.20,-500.00 11.20,-16.80"/>
        <lane id="S2TL_1" index="1" speed="13.89" length="500.00" shape="8.00,-500.00 8.00,-16.80"/>
        <lane id="S2TL_2" index="2" speed="13.89" length="500.00" shape="4.80,-500.00 4.80,-16.80"/>
        <lane id="S2TL_3" index="3" speed="13.89" length="500.00" shape="1.60,-500.00 1.60,-16.80"/>
    </edge>
    <edge id="TL2E" from="TL" to="DE" priority="-1" length="500.00">
        <lane id="TL2E_0" index="0" speed="13.89" length="500.00" shape="16.80,-11.20 500.00,-11.20"/>
        <lane id="TL2E_1" index="1" speed="13.89" length="500.00" shape="16.80,-8.00 500.00,-8.00"/>
        <lane id="TL2E_2" index="2" speed="13.89" length="500.00" shape="16.80,-4.80 500.00,-4.80"/>
        <lane id="TL2E_3" index="3" speed="13.89" length="500.00" shape="16.80,-1.60 500.00,-1.60"/>
    </edge>
    <edge id="TL2N" from="TL" to="DN" priority="-1" length="500.00">
        <lane id="TL2N_0" index="0" speed="13.89" length="500.00" shape="11.20,16.80 11.20,500.00"/>
        <lane id="TL2N_1" index="1" speed="13.89" length="500.00" shape="8.00,16.80 8.00,500.00"/>
        <lane id="TL2N_2" index="2" speed="13.89" length="500.00" shape="4.80,16.80 4.80,500.00"/>
        <lane id="TL2N_3" index="3" speed="13.89" length="500.00" shape="1.60,16.80 1.60,500.00"/>
    </edge>
    <edge id="TL2S" from="TL" to="DS" priority="-1" length="500.00">
        <lane id="TL2S_0" index="0" speed="13.89" length="500.00" shape="-11.20,-16.80 -11.20,-500.00"/>
        <lane id="TL2S_1" index="1" speed="13.89" length="500.00" shape="-8.00,-16.80 -8.00,-500.00"/>
        <lane id="TL2S_2" index="2" speed="13.89" length="500.00" shape="-4.80,-16.80 -4.80,-500.00"/>
        <lane id="TL2S_3" index="3" speed="13.89" length="500.00" shape="-1.60,-16.80 -1.60,-500.00"/>
    </edge>
    <edge id="TL2W" from="TL" to="DW" priority="-1" length="750.00">
        <lane id="TL2W_0" index="0" speed="13.89" length="750.00" shape="-16.80,11.20 -500.00,11.20"/>
        <lane id="TL2W_1" index="1" speed="13.89" length="750.00" shape="-16.80,8.00 -500.00,8.00"/>
        <lane id="TL2W_2" index="2" speed="13.89" length="750.00" shape="-16.80,4.80 -500.00,4.80"/>
        <lane id="TL2W_3" index="3" speed="13.89" length="750.00" shape="-16.80,1.60 -500.00,1.60"/>
    </edge>
    <edge id="W2TL" from="DW" to="TL" priority="-1" length="500.00">
        <lane id="W2TL_0" index="0" speed="13.89" length="500.00" shape="-500.00,-11.20 -16.80,-11.20"/>
        <lane id="W2TL_1" index="1" speed="13.89" length="500.00" shape="-500.00,-8.00 -16.80,-8.00"/>
        <lane id="W2TL_2" index="2" speed="13.89" length="500.00" shape="-500.00,-4.80 -16.80,-4.80"/>
        <lane id="W2TL_3" index="3" speed="13.89" length="500.00" shape="-500.00,-1.60 -16.80,-1.60"/>
    </edge>

    <tlLogic id="TL" type="static" programID="0" offset="0">
        <phase duration="100" state="GGGGrrrrrrrrrrrr"/>
        <phase duration="100" state="yyyyrrrrrrrrrrrr"/>
        <phase duration="100" state="rrrrGGGGrrrrrrrr"/>
        <phase duration="100" state="rrrryyyyrrrrrrrr"/>
        <phase duration="100" state="rrrrrrrrGGGGrrrr"/>
        <phase duration="100" state="rrrrrrrryyyyrrrr"/>
        <phase duration="100" state="rrrrrrrrrrrrGGGG"/>
        <phase duration="100" state="rrrrrrrrrrrryyyy"/>
    </tlLogic>

    <junction id="DE" type="dead_end" x="500.00" y="0.00" incLanes="TL2E_0 TL2E_1 TL2E_2 TL2E_3" intLanes="" shape="500.00,0.00 500.00,-12.80 500.00,0.00"/>
    <junction id="DN" type="dead_end" x="0.00" y="500.00" incLanes="TL2N_0 TL2N_1 TL2N_2 TL2N_3" intLanes="" shape="0.00,500.00 12.80,500.00 0.00,500.00"/>
    <junction id="DS" type="dead_end" x="0.00" y="-500.00" incLanes="TL2S_0 TL2S_1 TL2S_2 TL2S_3" intLanes="" shape="0.00,-500.00 -12.80,-500.00 0.00,-500.00"/>
    <junction id="DW" type="dead_end" x="-500.00" y="0.00" incLanes="TL2W_0 TL2W_1 TL2W_2 TL2W_3" intLanes="" shape="-500.00,0.00 -500.00,12.80 -500.00,0.00"/>
    <junction id="TL" type="traffic_light" x="0.00" y="0.00" incLanes="N2TL_0 N2TL_1 N2TL_2 N2TL_3 E2TL_0 E2TL_1 E2TL_2 E2TL_3 S2TL_0 S2TL_1 S2TL_2 S2TL_3 W2TL_0 W2TL_1 W2TL_2 W2TL_3" intLanes=":TL_0_0 :TL_1_0 :TL_1_1 :TL_3_0 :TL_4_0 :TL_5_0 :TL_5_1 :TL_7_0 :TL_8_0 :TL_9_0 :TL_9_1 :TL_11_0 :TL_12_0 :TL_13_0 :TL_13_1 :TL_15_0" shape="-12.80,16.80 12.80,16.80 13.24,14.58 13.80,13.80 14.58,13.24 15.58,12.91 16.80,12.80 16.80,-12.80 14.58,-13.24 13.80,-13.80 13.24,-14.58 12.91,-15.58 12.80,-16.80 -12.80,-16.80 -13.24,-14.58 -13.80,-13.80 -14.58,-13.24 -15.58,-12.91 -16.80,-12.80 -16.80,12.80 -14.58,13.24 -13.80,13.80 -13.24,14.58 -12.91,15.58">
        <request index="0"  response="0000000000000000" foes="0000000000000000" cont="0"/>
        <request index="1"  response="0000000000000000" foes="1110100001100000" cont="0"/>
        <request index="2"  response="0000000000000000" foes="1110100001100000" cont="0"/>
        <request index="3"  response="0000011000000000" foes="1000011011100000" cont="0"/>
        <request index="4"  response="0000000000000000" foes="0000000000000000" cont="0"/>
        <request index="5"  response="0000011000001110" foes="1000011000001110" cont="0"/>
        <request index="6"  response="0000011000001110" foes="1000011000001110" cont="0"/>
        <request index="7"  response="0110111000001000" foes="0110111000001000" cont="0"/>
        <request index="8"  response="0000000000000000" foes="0000000000000000" cont="0"/>
        <request index="9"  response="0000000000000000" foes="0110000011101000" cont="0"/>
        <request index="10" response="0000000000000000" foes="0110000011101000" cont="0"/>
        <request index="11" response="0000000000000110" foes="1110000010000110" cont="0"/>
        <request index="12" response="0000000000000000" foes="0000000000000000" cont="0"/>
        <request index="13" response="0000111000000110" foes="0000111010000110" cont="0"/>
        <request index="14" response="0000111000000110" foes="0000111010000110" cont="0"/>
        <request index="15" response="0000100001101110" foes="0000100001101110" cont="0"/>
    </junction>

    <connection from="E2TL" to="TL2N" fromLane="0" toLane="0" via=":TL_4_0" tl="TL" linkIndex="4" dir="r" state="O"/>
    <connection from="E2TL" to="TL2W" fromLane="1" toLane="1" via=":TL_5_0" tl="TL" linkIndex="5" dir="s" state="o"/>
    <connection from="E2TL" to="TL2W" fromLane="2" toLane="2" via=":TL_5_1" tl="TL" linkIndex="6" dir="s" state="o"/>
    <connection from="E2TL" to="TL2S" fromLane="3" toLane="3" via=":TL_7_0" tl="TL" linkIndex="7" dir="l" state="o"/>
    <connection from="N2TL" to="TL2W" fromLane="0" toLane="0" via=":TL_0_0" tl="TL" linkIndex="0" dir="r" state="O"/>
    <connection from="N2TL" to="TL2S" fromLane="1" toLane="1" via=":TL_1_0" tl="TL" linkIndex="1" dir="s" state="O"/>
    <connection from="N2TL" to="TL2S" fromLane="2" toLane="2" via=":TL_1_1" tl="TL" linkIndex="2" dir="s" state="O"/>
    <connection from="N2TL" to="TL2E" fromLane="3" toLane="3" via=":TL_3_0" tl="TL" linkIndex="3" dir="l" state="o"/>
    <connection from="S2TL" to="TL2E" fromLane="0" toLane="0" via=":TL_8_0" tl="TL" linkIndex="8" dir="r" state="O"/>
    <connection from="S2TL" to="TL2N" fromLane="1" toLane="1" via=":TL_9_0" tl="TL" linkIndex="9" dir="s" state="O"/>
    <connection from="S2TL" to="TL2N" fromLane="2" toLane="2" via=":TL_9_1" tl="TL" linkIndex="10" dir="s" state="O"/>
    <connection from="S2TL" to="TL2W" fromLane="3" toLane="3" via=":TL_11_0" tl="TL" linkIndex="11" dir="l" state="o"/>
    <connection from="W2TL" to="TL2S" fromLane="0" toLane="0" via=":TL_12_0" tl="TL" linkIndex="12" dir="r" state="O"/>
    <connection from="W2TL" to="TL2E" fromLane="1" toLane="1" via=":TL_13_0" tl="TL" linkIndex="13" dir="s" state="o"/>
    <connection from="W2TL" to="TL2E" fromLane="2" toLane="2" via=":TL_13_1" tl="TL" linkIndex="14" dir="s" state="o"/>
    <connection from="W2TL" to="TL2N" fromLane="3" toLane="3" via=":TL_15_0" tl="TL" linkIndex="15" dir="l" state="o"/>

    <connection from=":TL_0" to="TL2W" fromLane="0" toLane="0" dir="r" state="M"/>
    <connection from=":TL_1" to="TL2S" fromLane="0" toLane="1" dir="s" state="M"/>
    <connection from=":TL_1" to="TL2S" fromLane="1" toLane="2" dir="s" state="M"/>
    <connection from=":TL_3" to="TL2E" fromLane="0" toLane="3" dir="l" state="M"/>
    <connection from=":TL_4" to="TL2N" fromLane="0" toLane="0" dir="r" state="M"/>
    <connection from=":TL_5" to="TL2W" fromLane="0" toLane="1" dir="s" state="M"/>
    <connection from=":TL_5" to="TL2W" fromLane="1" toLane="2" dir="s" state="M"/>
    <connection from=":TL_7" to="TL2S" fromLane="0" toLane="3" dir="l" state="M"/>
    <connection from=":TL_8" to="TL2E" fromLane="0" toLane="0" dir="r" state="M"/>
    <connection from=":TL_9" to="TL2N" fromLane="0" toLane="1" dir="s" state="M"/>
    <connection from=":TL_9" to="TL2N" fromLane="1" toLane="2" dir="s" state="M"/>
    <connection from=":TL_11" to="TL2W" fromLane="0" toLane="3" dir="l" state="M"/>
    <connection from=":TL_12" to="TL2S" fromLane="0" toLane="0" dir="r" state="M"/>
    <connection from=":TL_13" to="TL2E" fromLane="0" toLane="1" dir="s" state="M"/>
    <connection from=":TL_13" to="TL2E" fromLane="1" toLane="2" dir="s" state="M"/>
    <connection from=":TL_15" to="TL2N" fromLane="0" toLane="3" dir="l" state="M"/>

</net>
