<routes>
            <vTypeDistribution id="low_priority">
                <vType id="standard_car" vClass="passenger" guiShape="passenger" speedDev="0.2" latAlignment="compact" sigma="0.5" probability="0.5" />
                <vType id="bike" vClass="motorcycle" guiShape="motorcycle" speedDev="0.2" latAlignment="compact" sigma="0.5" probability="0.1"/>
                <vType id="bus" vClass="bus" guiShape="truck" speedDev="0.2" latAlignment="compact" sigma="0.5" probability="0.2"/>
                <vType id="taxi" vClass="taxi" guiShape="passenger/sedan" speedDev="0.2" latAlignment="compact" sigma="0.5" color = "255,0,0" probability="0.2"/>
            </vTypeDistribution>
        
            <vTypeDistribution id="high_priority">
                <vType id="amb" vClass="emergency" guiShape="emergency" speedDev="0.2" latAlignment="compact" probability="0.4"/>
                <vType id="pol" vClass="authority" guiShape="police" speedDev="0.4" latAlignment="compact" probability="0.4"/>
                <vType id="fire" vClass="emergency" guiShape="firebrigade" speedDev="0.4" latAlignment="compact" probability="0.2"/>
            </vTypeDistribution>
            
            <route id="W_N" edges="W2TL TL2N"/>
            <route id="W_E" edges="W2TL TL2E"/>
            <route id="W_S" edges="W2TL TL2S"/>
            <route id="N_W" edges="N2TL TL2W"/>
            <route id="N_E" edges="N2TL TL2E"/>
            <route id="N_S" edges="N2TL TL2S"/>
            <route id="E_W" edges="E2TL TL2W"/>
            <route id="E_N" edges="E2TL TL2N"/>
            <route id="E_S" edges="E2TL TL2S"/>
            <route id="S_W" edges="S2TL TL2W"/>
            <route id="S_N" edges="S2TL TL2N"/>
            <route id="S_E" edges="S2TL TL2E"/>
    <vehicle id="S_N_0" type="low_priority" route="S_N" depart="66.0" departLane="random" departSpeed="10" />
    <vehicle id="S_N_1" type="low_priority" route="S_N" depart="78.0" departLane="random" departSpeed="10" />
    <vehicle id="E_S_2" type="low_priority" route="E_S" depart="123.0" departLane="random" departSpeed="10" />
    <vehicle id="W_E_3" type="low_priority" route="W_E" depart="124.0" departLane="random" departSpeed="10" />
    <vehicle id="N_S_4" type="low_priority" route="N_S" depart="132.0" departLane="random" departSpeed="10" />
    <vehicle id="S_N_5" type="low_priority" route="S_N" depart="142.0" departLane="random" departSpeed="10" />
    <vehicle id="N_S_6" type="low_priority" route="N_S" depart="145.0" departLane="random" departSpeed="10" />
    <vehicle id="W_E_7" type="low_priority" route="W_E" depart="146.0" departLane="random" departSpeed="10" />
    <vehicle id="N_S_8" type="low_priority" route="N_S" depart="185.0" departLane="random" departSpeed="10" />
    <vehicle id="N_S_9" type="low_priority" route="N_S" depart="186.0" departLane="random" departSpeed="10" />
    <vehicle id="W_E_10" type="low_priority" route="W_E" depart="188.0" departLane="random" departSpeed="10" />
    <vehicle id="E_W_11" type="low_priority" route="E_W" depart="189.0" departLane="random" departSpeed="10" />
    <vehicle id="E_W_12" type="low_priority" route="E_W" depart="189.0" departLane="random" departSpeed="10" />
    <vehicle id="W_E_13" type="low_priority" route="W_E" depart="202.0" departLane="random" departSpeed="10" />
    <vehicle id="N_S_14" type="low_priority" route="N_S" depart="212.0" departLane="random" departSpeed="10" />
    <vehicle id="S_N_15" type="low_priority" route="S_N" depart="212.0" departLane="random" departSpeed="10" />
    <vehicle id="E_N_16" type="low_priority" route="E_N" depart="222.0" departLane="random" departSpeed="10" />
    <vehicle id="E_W_17" type="low_priority" route="E_W" depart="243.0" departLane="random" departSpeed="10" />
    <vehicle id="N_S_18" type="low_priority" route="N_S" depart="243.0" departLane="random" departSpeed="10" />
    <vehicle id="N_S_19" type="low_priority" route="N_S" depart="247.0" departLane="random" departSpeed="10" />
    <vehicle id="N_S_20" type="low_priority" route="N_S" depart="250.0" departLane="random" departSpeed="10" />
    <vehicle id="PN_S_21" type="high_priority" route="N_S" depart="267.0" departLane="random" departSpeed="10" />
    <vehicle id="S_N_22" type="low_priority" route="S_N" depart="273.0" departLane="random" departSpeed="10" />
    <vehicle id="N_W_23" type="low_priority" route="N_W" depart="277.0" departLane="random" departSpeed="10" />
    <vehicle id="S_N_24" type="low_priority" route="S_N" depart="289.0" departLane="random" departSpeed="10" />
    <vehicle id="S_N_25" type="low_priority" route="S_N" depart="290.0" departLane="random" departSpeed="10" />
    <vehicle id="S_N_26" type="low_priority" route="S_N" depart="292.0" departLane="random" departSpeed="10" />
    <vehicle id="E_S_27" type="low_priority" route="E_S" depart="294.0" departLane="random" departSpeed="10" />
    <vehicle id="PS_E_28" type="high_priority" route="S_E" depart="303.0" departLane="random" departSpeed="10" />
    <vehicle id="N_E_29" type="low_priority" route="N_E" depart="308.0" departLane="random" departSpeed="10" />
    <vehicle id="S_N_30" type="low_priority" route="S_N" depart="313.0" departLane="random" departSpeed="10" />
    <vehicle id="E_W_31" type="low_priority" route="E_W" depart="318.0" departLane="random" departSpeed="10" />
    <vehicle id="E_W_32" type="low_priority" route="E_W" depart="322.0" departLane="random" departSpeed="10" />
    <vehicle id="N_W_33" type="low_priority" route="N_W" depart="322.0" departLane="random" departSpeed="10" />
    <vehicle id="N_E_34" type="low_priority" route="N_E" depart="339.0" departLane="random" departSpeed="10" />
    <vehicle id="E_W_35" type="low_priority" route="E_W" depart="342.0" departLane="random" departSpeed="10" />
    <vehicle id="W_E_36" type="low_priority" route="W_E" depart="344.0" departLane="random" departSpeed="10" />
    <vehicle id="E_W_37" type="low_priority" route="E_W" depart="344.0" departLane="random" departSpeed="10" />
    <vehicle id="S_N_38" type="low_priority" route="S_N" depart="352.0" departLane="random" departSpeed="10" />
    <vehicle id="E_S_39" type="low_priority" route="E_S" depart="353.0" departLane="random" departSpeed="10" />
    <vehicle id="N_S_40" type="low_priority" route="N_S" depart="356.0" departLane="random" departSpeed="10" />
    <vehicle id="S_N_41" type="low_priority" route="S_N" depart="364.0" departLane="random" departSpeed="10" />
    <vehicle id="S_W_42" type="low_priority" route="S_W" depart="364.0" departLane="random" departSpeed="10" />
    <vehicle id="PN_S_43" type="high_priority" route="N_S" depart="367.0" departLane="random" departSpeed="10" />
    <vehicle id="N_S_44" type="low_priority" route="N_S" depart="370.0" departLane="random" departSpeed="10" />
    <vehicle id="S_N_45" type="low_priority" route="S_N" depart="373.0" departLane="random" departSpeed="10" />
    <vehicle id="W_S_46" type="low_priority" route="W_S" depart="381.0" departLane="random" departSpeed="10" />
    <vehicle id="E_W_47" type="low_priority" route="E_W" depart="385.0" departLane="random" departSpeed="10" />
    <vehicle id="W_S_48" type="low_priority" route="W_S" depart="387.0" departLane="random" departSpeed="10" />
    <vehicle id="W_S_49" type="low_priority" route="W_S" depart="393.0" departLane="random" departSpeed="10" />
    <vehicle id="E_N_50" type="low_priority" route="E_N" depart="400.0" departLane="random" departSpeed="10" />
    <vehicle id="S_N_51" type="low_priority" route="S_N" depart="402.0" departLane="random" departSpeed="10" />
    <vehicle id="W_S_52" type="low_priority" route="W_S" depart="402.0" departLane="random" departSpeed="10" />
    <vehicle id="W_E_53" type="low_priority" route="W_E" depart="404.0" departLane="random" departSpeed="10" />
    <vehicle id="E_W_54" type="low_priority" route="E_W" depart="406.0" departLane="random" departSpeed="10" />
    <vehicle id="E_W_55" type="low_priority" route="E_W" depart="411.0" departLane="random" departSpeed="10" />
    <vehicle id="W_E_56" type="low_priority" route="W_E" depart="413.0" departLane="random" departSpeed="10" />
    <vehicle id="W_E_57" type="low_priority" route="W_E" depart="417.0" departLane="random" departSpeed="10" />
    <vehicle id="PW_N_58" type="high_priority" route="W_N" depart="420.0" departLane="random" departSpeed="10" />
    <vehicle id="E_W_59" type="low_priority" route="E_W" depart="420.0" departLane="random" departSpeed="10" />
    <vehicle id="N_S_60" type="low_priority" route="N_S" depart="420.0" departLane="random" departSpeed="10" />
    <vehicle id="E_W_61" type="low_priority" route="E_W" depart="424.0" departLane="random" departSpeed="10" />
    <vehicle id="W_E_62" type="low_priority" route="W_E" depart="433.0" departLane="random" departSpeed="10" />
    <vehicle id="E_W_63" type="low_priority" route="E_W" depart="433.0" departLane="random" departSpeed="10" />
    <vehicle id="N_S_64" type="low_priority" route="N_S" depart="437.0" departLane="random" departSpeed="10" />
    <vehicle id="N_S_65" type="low_priority" route="N_S" depart="444.0" departLane="random" departSpeed="10" />
    <vehicle id="W_E_66" type="low_priority" route="W_E" depart="444.0" departLane="random" departSpeed="10" />
    <vehicle id="E_S_67" type="low_priority" route="E_S" depart="446.0" departLane="random" departSpeed="10" />
    <vehicle id="S_W_68" type="low_priority" route="S_W" depart="449.0" departLane="random" departSpeed="10" />
    <vehicle id="E_S_69" type="low_priority" route="E_S" depart="456.0" departLane="random" departSpeed="10" />
    <vehicle id="W_E_70" type="low_priority" route="W_E" depart="457.0" departLane="random" departSpeed="10" />
    <vehicle id="S_N_71" type="low_priority" route="S_N" depart="461.0" departLane="random" departSpeed="10" />
    <vehicle id="N_S_72" type="low_priority" route="N_S" depart="461.0" departLane="random" departSpeed="10" />
    <vehicle id="S_N_73" type="low_priority" route="S_N" depart="464.0" departLane="random" departSpeed="10" />
    <vehicle id="E_W_74" type="low_priority" route="E_W" depart="471.0" departLane="random" departSpeed="10" />
    <vehicle id="W_S_75" type="low_priority" route="W_S" depart="471.0" departLane="random" departSpeed="10" />
    <vehicle id="S_W_76" type="low_priority" route="S_W" depart="472.0" departLane="random" departSpeed="10" />
    <vehicle id="W_S_77" type="low_priority" route="W_S" depart="473.0" departLane="random" departSpeed="10" />
    <vehicle id="N_S_78" type="low_priority" route="N_S" depart="483.0" departLane="random" departSpeed="10" />
    <vehicle id="E_W_79" type="low_priority" route="E_W" depart="485.0" departLane="random" departSpeed="10" />
    <vehicle id="W_E_80" type="low_priority" route="W_E" depart="490.0" departLane="random" departSpeed="10" />
    <vehicle id="E_S_81" type="low_priority" route="E_S" depart="496.0" departLane="random" departSpeed="10" />
    <vehicle id="S_N_82" type="low_priority" route="S_N" depart="499.0" departLane="random" departSpeed="10" />
    <vehicle id="W_E_83" type="low_priority" route="W_E" depart="502.0" departLane="random" departSpeed="10" />
    <vehicle id="N_S_84" type="low_priority" route="N_S" depart="504.0" departLane="random" departSpeed="10" />
    <vehicle id="S_N_85" type="low_priority" route="S_N" depart="504.0" departLane="random" departSpeed="10" />
    <vehicle id="S_W_86" type="low_priority" route="S_W" depart="505.0" departLane="random" departSpeed="10" />
    <vehicle id="E_W_87" type="low_priority" route="E_W" depart="506.0" departLane="random" departSpeed="10" />
    <vehicle id="W_E_88" type="low_priority" route="W_E" depart="507.0" departLane="random" departSpeed="10" />
    <vehicle id="E_W_89" type="low_priority" route="E_W" depart="508.0" departLane="random" departSpeed="10" />
    <vehicle id="N_E_90" type="low_priority" route="N_E" depart="509.0" departLane="random" departSpeed="10" />
    <vehicle id="PN_S_91" type="high_priority" route="N_S" depart="515.0" departLane="random" departSpeed="10" />
    <vehicle id="N_S_92" type="low_priority" route="N_S" depart="521.0" departLane="random" departSpeed="10" />
    <vehicle id="N_S_93" type="low_priority" route="N_S" depart="523.0" departLane="random" departSpeed="10" />
    <vehicle id="PS_N_94" type="high_priority" route="S_N" depart="523.0" departLane="random" departSpeed="10" />
    <vehicle id="W_E_95" type="low_priority" route="W_E" depart="523.0" departLane="random" departSpeed="10" />
    <vehicle id="N_S_96" type="low_priority" route="N_S" depart="527.0" departLane="random" departSpeed="10" />
    <vehicle id="W_E_97" type="low_priority" route="W_E" depart="527.0" departLane="random" departSpeed="10" />
    <vehicle id="E_W_98" type="low_priority" route="E_W" depart="532.0" departLane="random" departSpeed="10" />
    <vehicle id="W_E_99" type="low_priority" route="W_E" depart="536.0" departLane="random" departSpeed="10" />
    <vehicle id="W_S_100" type="low_priority" route="W_S" depart="540.0" departLane="random" departSpeed="10" />
    <vehicle id="N_S_101" type="low_priority" route="N_S" depart="541.0" departLane="random" departSpeed="10" />
    <vehicle id="N_E_102" type="low_priority" route="N_E" depart="544.0" departLane="random" departSpeed="10" />
    <vehicle id="S_W_103" type="low_priority" route="S_W" depart="548.0" departLane="random" departSpeed="10" />
    <vehicle id="N_S_104" type="low_priority" route="N_S" depart="551.0" departLane="random" departSpeed="10" />
    <vehicle id="PN_W_105" type="high_priority" route="N_W" depart="559.0" departLane="random" departSpeed="10" />
    <vehicle id="W_E_106" type="low_priority" route="W_E" depart="561.0" departLane="random" departSpeed="10" />
    <vehicle id="W_E_107" type="low_priority" route="W_E" depart="561.0" departLane="random" departSpeed="10" />
    <vehicle id="E_W_108" type="low_priority" route="E_W" depart="562.0" departLane="random" departSpeed="10" />
    <vehicle id="E_W_109" type="low_priority" route="E_W" depart="562.0" departLane="random" departSpeed="10" />
    <vehicle id="N_S_110" type="low_priority" route="N_S" depart="565.0" departLane="random" departSpeed="10" />
    <vehicle id="N_S_111" type="low_priority" route="N_S" depart="567.0" departLane="random" departSpeed="10" />
    <vehicle id="PE_W_112" type="high_priority" route="E_W" depart="568.0" departLane="random" departSpeed="10" />
    <vehicle id="W_E_113" type="low_priority" route="W_E" depart="570.0" departLane="random" departSpeed="10" />
    <vehicle id="W_S_114" type="low_priority" route="W_S" depart="571.0" departLane="random" departSpeed="10" />
    <vehicle id="N_S_115" type="low_priority" route="N_S" depart="577.0" departLane="random" departSpeed="10" />
    <vehicle id="E_W_116" type="low_priority" route="E_W" depart="584.0" departLane="random" departSpeed="10" />
    <vehicle id="N_S_117" type="low_priority" route="N_S" depart="584.0" departLane="random" departSpeed="10" />
    <vehicle id="E_N_118" type="low_priority" route="E_N" depart="590.0" departLane="random" departSpeed="10" />
    <vehicle id="N_E_119" type="low_priority" route="N_E" depart="592.0" departLane="random" departSpeed="10" />
    <vehicle id="E_W_120" type="low_priority" route="E_W" depart="593.0" departLane="random" departSpeed="10" />
    <vehicle id="S_N_121" type="low_priority" route="S_N" depart="593.0" departLane="random" departSpeed="10" />
    <vehicle id="W_E_122" type="low_priority" route="W_E" depart="594.0" departLane="random" departSpeed="10" />
    <vehicle id="S_W_123" type="low_priority" route="S_W" depart="594.0" departLane="random" departSpeed="10" />
    <vehicle id="N_S_124" type="low_priority" route="N_S" depart="596.0" departLane="random" departSpeed="10" />
    <vehicle id="W_E_125" type="low_priority" route="W_E" depart="596.0" departLane="random" departSpeed="10" />
    <vehicle id="S_N_126" type="low_priority" route="S_N" depart="599.0" departLane="random" departSpeed="10" />
    <vehicle id="S_N_127" type="low_priority" route="S_N" depart="599.0" departLane="random" departSpeed="10" />
    <vehicle id="S_N_128" type="low_priority" route="S_N" depart="606.0" departLane="random" departSpeed="10" />
    <vehicle id="S_N_129" type="low_priority" route="S_N" depart="608.0" departLane="random" departSpeed="10" />
    <vehicle id="E_W_130" type="low_priority" route="E_W" depart="609.0" departLane="random" departSpeed="10" />
    <vehicle id="S_N_131" type="low_priority" route="S_N" depart="612.0" departLane="random" departSpeed="10" />
    <vehicle id="W_S_132" type="low_priority" route="W_S" depart="614.0" departLane="random" departSpeed="10" />
    <vehicle id="PE_S_133" type="high_priority" route="E_S" depart="614.0" departLane="random" departSpeed="10" />
    <vehicle id="E_N_134" type="low_priority" route="E_N" depart="618.0" departLane="random" departSpeed="10" />
    <vehicle id="N_S_135" type="low_priority" route="N_S" depart="623.0" departLane="random" departSpeed="10" />
    <vehicle id="N_S_136" type="low_priority" route="N_S" depart="625.0" departLane="random" departSpeed="10" />
    <vehicle id="S_W_137" type="low_priority" route="S_W" depart="630.0" departLane="random" departSpeed="10" />
    <vehicle id="E_W_138" type="low_priority" route="E_W" depart="632.0" departLane="random" departSpeed="10" />
    <vehicle id="S_N_139" type="low_priority" route="S_N" depart="634.0" departLane="random" departSpeed="10" />
    <vehicle id="N_S_140" type="low_priority" route="N_S" depart="635.0" departLane="random" departSpeed="10" />
    <vehicle id="S_N_141" type="low_priority" route="S_N" depart="636.0" departLane="random" departSpeed="10" />
    <vehicle id="S_N_142" type="low_priority" route="S_N" depart="640.0" departLane="random" departSpeed="10" />
    <vehicle id="PE_S_143" type="high_priority" route="E_S" depart="643.0" departLane="random" departSpeed="10" />
    <vehicle id="S_N_144" type="low_priority" route="S_N" depart="645.0" departLane="random" departSpeed="10" />
    <vehicle id="PW_S_145" type="high_priority" route="W_S" depart="645.0" departLane="random" departSpeed="10" />
    <vehicle id="PW_E_146" type="high_priority" route="W_E" depart="646.0" departLane="random" departSpeed="10" />
    <vehicle id="W_S_147" type="low_priority" route="W_S" depart="653.0" departLane="random" departSpeed="10" />
    <vehicle id="S_N_148" type="low_priority" route="S_N" depart="654.0" departLane="random" departSpeed="10" />
    <vehicle id="N_E_149" type="low_priority" route="N_E" depart="654.0" departLane="random" departSpeed="10" />
    <vehicle id="S_N_150" type="low_priority" route="S_N" depart="663.0" departLane="random" departSpeed="10" />
    <vehicle id="E_W_151" type="low_priority" route="E_W" depart="663.0" departLane="random" departSpeed="10" />
    <vehicle id="N_S_152" type="low_priority" route="N_S" depart="664.0" departLane="random" departSpeed="10" />
    <vehicle id="N_S_153" type="low_priority" route="N_S" depart="664.0" departLane="random" departSpeed="10" />
    <vehicle id="N_S_154" type="low_priority" route="N_S" depart="669.0" departLane="random" departSpeed="10" />
    <vehicle id="S_N_155" type="low_priority" route="S_N" depart="670.0" departLane="random" departSpeed="10" />
    <vehicle id="N_W_156" type="low_priority" route="N_W" depart="673.0" departLane="random" departSpeed="10" />
    <vehicle id="N_S_157" type="low_priority" route="N_S" depart="683.0" departLane="random" departSpeed="10" />
    <vehicle id="E_N_158" type="low_priority" route="E_N" depart="685.0" departLane="random" departSpeed="10" />
    <vehicle id="E_W_159" type="low_priority" route="E_W" depart="685.0" departLane="random" departSpeed="10" />
    <vehicle id="W_E_160" type="low_priority" route="W_E" depart="686.0" departLane="random" departSpeed="10" />
    <vehicle id="S_N_161" type="low_priority" route="S_N" depart="686.0" departLane="random" departSpeed="10" />
    <vehicle id="E_W_162" type="low_priority" route="E_W" depart="690.0" departLane="random" departSpeed="10" />
    <vehicle id="S_W_163" type="low_priority" route="S_W" depart="693.0" departLane="random" departSpeed="10" />
    <vehicle id="W_S_164" type="low_priority" route="W_S" depart="694.0" departLane="random" departSpeed="10" />
    <vehicle id="W_E_165" type="low_priority" route="W_E" depart="697.0" departLane="random" departSpeed="10" />
    <vehicle id="N_S_166" type="low_priority" route="N_S" depart="698.0" departLane="random" departSpeed="10" />
    <vehicle id="S_W_167" type="low_priority" route="S_W" depart="699.0" departLane="random" departSpeed="10" />
    <vehicle id="N_S_168" type="low_priority" route="N_S" depart="700.0" departLane="random" departSpeed="10" />
    <vehicle id="N_S_169" type="low_priority" route="N_S" depart="703.0" departLane="random" departSpeed="10" />
    <vehicle id="W_E_170" type="low_priority" route="W_E" depart="704.0" departLane="random" departSpeed="10" />
    <vehicle id="W_E_171" type="low_priority" route="W_E" depart="715.0" departLane="random" departSpeed="10" />
    <vehicle id="E_W_172" type="low_priority" route="E_W" depart="718.0" departLane="random" departSpeed="10" />
    <vehicle id="PE_W_173" type="high_priority" route="E_W" depart="722.0" departLane="random" departSpeed="10" />
    <vehicle id="E_W_174" type="low_priority" route="E_W" depart="723.0" departLane="random" departSpeed="10" />
    <vehicle id="W_E_175" type="low_priority" route="W_E" depart="723.0" departLane="random" departSpeed="10" />
    <vehicle id="PN_S_176" type="high_priority" route="N_S" depart="723.0" departLane="random" departSpeed="10" />
    <vehicle id="PN_S_177" type="high_priority" route="N_S" depart="726.0" departLane="random" departSpeed="10" />
    <vehicle id="S_N_178" type="low_priority" route="S_N" depart="728.0" departLane="random" departSpeed="10" />
    <vehicle id="W_E_179" type="low_priority" route="W_E" depart="731.0" departLane="random" departSpeed="10" />
    <vehicle id="W_E_180" type="low_priority" route="W_E" depart="733.0" departLane="random" departSpeed="10" />
    <vehicle id="S_N_181" type="low_priority" route="S_N" depart="734.0" departLane="random" departSpeed="10" />
    <vehicle id="PN_W_182" type="high_priority" route="N_W" depart="735.0" departLane="random" departSpeed="10" />
    <vehicle id="W_E_183" type="low_priority" route="W_E" depart="741.0" departLane="random" departSpeed="10" />
    <vehicle id="W_E_184" type="low_priority" route="W_E" depart="744.0" departLane="random" departSpeed="10" />
    <vehicle id="W_N_185" type="low_priority" route="W_N" depart="747.0" departLane="random" departSpeed="10" />
    <vehicle id="E_W_186" type="low_priority" route="E_W" depart="751.0" departLane="random" departSpeed="10" />
    <vehicle id="W_E_187" type="low_priority" route="W_E" depart="751.0" departLane="random" departSpeed="10" />
    <vehicle id="S_N_188" type="low_priority" route="S_N" depart="754.0" departLane="random" departSpeed="10" />
    <vehicle id="S_N_189" type="low_priority" route="S_N" depart="755.0" departLane="random" departSpeed="10" />
    <vehicle id="S_N_190" type="low_priority" route="S_N" depart="755.0" departLane="random" departSpeed="10" />
    <vehicle id="E_W_191" type="low_priority" route="E_W" depart="761.0" departLane="random" departSpeed="10" />
    <vehicle id="W_N_192" type="low_priority" route="W_N" depart="761.0" departLane="random" departSpeed="10" />
    <vehicle id="E_W_193" type="low_priority" route="E_W" depart="762.0" departLane="random" departSpeed="10" />
    <vehicle id="E_W_194" type="low_priority" route="E_W" depart="763.0" departLane="random" departSpeed="10" />
    <vehicle id="W_E_195" type="low_priority" route="W_E" depart="767.0" departLane="random" departSpeed="10" />
    <vehicle id="S_N_196" type="low_priority" route="S_N" depart="772.0" departLane="random" departSpeed="10" />
    <vehicle id="E_N_197" type="low_priority" route="E_N" depart="782.0" departLane="random" departSpeed="10" />
    <vehicle id="S_N_198" type="low_priority" route="S_N" depart="782.0" departLane="random" departSpeed="10" />
    <vehicle id="S_N_199" type="low_priority" route="S_N" depart="787.0" departLane="random" departSpeed="10" />
    <vehicle id="W_N_200" type="low_priority" route="W_N" depart="788.0" departLane="random" departSpeed="10" />
    <vehicle id="W_E_201" type="low_priority" route="W_E" depart="789.0" departLane="random" departSpeed="10" />
    <vehicle id="N_S_202" type="low_priority" route="N_S" depart="789.0" departLane="random" departSpeed="10" />
    <vehicle id="S_N_203" type="low_priority" route="S_N" depart="798.0" departLane="random" departSpeed="10" />
    <vehicle id="S_N_204" type="low_priority" route="S_N" depart="800.0" departLane="random" departSpeed="10" />
    <vehicle id="N_S_205" type="low_priority" route="N_S" depart="802.0" departLane="random" departSpeed="10" />
    <vehicle id="W_E_206" type="low_priority" route="W_E" depart="803.0" departLane="random" departSpeed="10" />
    <vehicle id="N_S_207" type="low_priority" route="N_S" depart="803.0" departLane="random" departSpeed="10" />
    <vehicle id="W_E_208" type="low_priority" route="W_E" depart="810.0" departLane="random" departSpeed="10" />
    <vehicle id="N_S_209" type="low_priority" route="N_S" depart="814.0" departLane="random" departSpeed="10" />
    <vehicle id="S_N_210" type="low_priority" route="S_N" depart="815.0" departLane="random" departSpeed="10" />
    <vehicle id="N_S_211" type="low_priority" route="N_S" depart="815.0" departLane="random" departSpeed="10" />
    <vehicle id="N_S_212" type="low_priority" route="N_S" depart="818.0" departLane="random" departSpeed="10" />
    <vehicle id="S_N_213" type="low_priority" route="S_N" depart="821.0" departLane="random" departSpeed="10" />
    <vehicle id="W_E_214" type="low_priority" route="W_E" depart="822.0" departLane="random" departSpeed="10" />
    <vehicle id="PS_E_215" type="high_priority" route="S_E" depart="827.0" departLane="random" departSpeed="10" />
    <vehicle id="N_E_216" type="low_priority" route="N_E" depart="830.0" departLane="random" departSpeed="10" />
    <vehicle id="W_E_217" type="low_priority" route="W_E" depart="830.0" departLane="random" departSpeed="10" />
    <vehicle id="W_E_218" type="low_priority" route="W_E" depart="833.0" departLane="random" departSpeed="10" />
    <vehicle id="W_E_219" type="low_priority" route="W_E" depart="833.0" departLane="random" departSpeed="10" />
    <vehicle id="N_S_220" type="low_priority" route="N_S" depart="836.0" departLane="random" departSpeed="10" />
    <vehicle id="S_N_221" type="low_priority" route="S_N" depart="836.0" departLane="random" departSpeed="10" />
    <vehicle id="N_S_222" type="low_priority" route="N_S" depart="836.0" departLane="random" departSpeed="10" />
    <vehicle id="E_W_223" type="low_priority" route="E_W" depart="838.0" departLane="random" departSpeed="10" />
    <vehicle id="N_S_224" type="low_priority" route="N_S" depart="840.0" departLane="random" departSpeed="10" />
    <vehicle id="W_E_225" type="low_priority" route="W_E" depart="843.0" departLane="random" departSpeed="10" />
    <vehicle id="S_N_226" type="low_priority" route="S_N" depart="844.0" departLane="random" departSpeed="10" />
    <vehicle id="S_N_227" type="low_priority" route="S_N" depart="845.0" departLane="random" departSpeed="10" />
    <vehicle id="W_E_228" type="low_priority" route="W_E" depart="846.0" departLane="random" departSpeed="10" />
    <vehicle id="E_W_229" type="low_priority" route="E_W" depart="846.0" departLane="random" departSpeed="10" />
    <vehicle id="S_N_230" type="low_priority" route="S_N" depart="857.0" departLane="random" departSpeed="10" />
    <vehicle id="S_N_231" type="low_priority" route="S_N" depart="858.0" departLane="random" departSpeed="10" />
    <vehicle id="N_S_232" type="low_priority" route="N_S" depart="865.0" departLane="random" departSpeed="10" />
    <vehicle id="S_N_233" type="low_priority" route="S_N" depart="867.0" departLane="random" departSpeed="10" />
    <vehicle id="N_S_234" type="low_priority" route="N_S" depart="868.0" departLane="random" departSpeed="10" />
    <vehicle id="S_N_235" type="low_priority" route="S_N" depart="871.0" departLane="random" departSpeed="10" />
    <vehicle id="N_S_236" type="low_priority" route="N_S" depart="875.0" departLane="random" departSpeed="10" />
    <vehicle id="N_S_237" type="low_priority" route="N_S" depart="878.0" departLane="random" departSpeed="10" />
    <vehicle id="S_N_238" type="low_priority" route="S_N" depart="879.0" departLane="random" departSpeed="10" />
    <vehicle id="PW_E_239" type="high_priority" route="W_E" depart="881.0" departLane="random" departSpeed="10" />
    <vehicle id="E_W_240" type="low_priority" route="E_W" depart="885.0" departLane="random" departSpeed="10" />
    <vehicle id="W_E_241" type="low_priority" route="W_E" depart="887.0" departLane="random" departSpeed="10" />
    <vehicle id="W_E_242" type="low_priority" route="W_E" depart="890.0" departLane="random" departSpeed="10" />
    <vehicle id="E_W_243" type="low_priority" route="E_W" depart="890.0" departLane="random" departSpeed="10" />
    <vehicle id="E_W_244" type="low_priority" route="E_W" depart="894.0" departLane="random" departSpeed="10" />
    <vehicle id="S_N_245" type="low_priority" route="S_N" depart="897.0" departLane="random" departSpeed="10" />
    <vehicle id="N_S_246" type="low_priority" route="N_S" depart="898.0" departLane="random" departSpeed="10" />
    <vehicle id="E_W_247" type="low_priority" route="E_W" depart="902.0" departLane="random" departSpeed="10" />
    <vehicle id="N_S_248" type="low_priority" route="N_S" depart="905.0" departLane="random" departSpeed="10" />
    <vehicle id="W_S_249" type="low_priority" route="W_S" depart="906.0" departLane="random" departSpeed="10" />