<routes>

            <vTypeDistribution id="low_priority">
                <vType id="standard_car" vClass="passenger" guiShape="passenger" speedDev="0.2" latAlignment="arbitrary" sigma="0.5" probability="0.5" />
                <vType id="bike" vClass="motorcycle" guiShape="motorcycle" speedDev="0.2" latAlignment="arbitrary" sigma="0.5" probability="0.1"/>
                <vType id="bus" vClass="bus" guiShape="truck" speedDev="0.2" latAlignment="arbitrary" sigma="0.5" probability="0.2"/>
                <vType id="taxi" vClass="taxi" guiShape="passenger/sedan" speedDev="0.2" latAlignment="arbitrary" sigma="0.5" color = "255,0,0" probability="0.2"/>
            </vTypeDistribution>

            <vTypeDistribution id="high_priority">
                <vType id="amb" vClass="emergency" guiShape="emergency" speedDev="0.2" latAlignment="arbitrary" probability="0.4"><param key="has.bluelight.device" value="true"/></vType>
                <vType id="pol" vClass="authority" guiShape="police" speedDev="0.4" latAlignment="arbitrary" probability="0.4"><param key="has.bluelight.device" value="true"/></vType>
                <vType id="fire" vClass="emergency" guiShape="firebrigade" speedDev="0.4" latAlignment="arbitrary" probability="0.2"><param key="has.bluelight.device" value="true"/></vType>
            </vTypeDistribution>

            <route id="A_B" edges="A2TL1 TL12B"/>
            <route id="A_C" edges="A2TL1 TL12TL2 TL22C"/>
            <route id="A_D" edges="A2TL1 TL12TL2 TL22D"/>
            <route id="A_E" edges="A2TL1 TL12TL2 TL22E"/>
            <route id="A_F" edges="A2TL1 TL12F"/>

            <route id="B_A" edges="B2TL1 TL12A"/>
            <route id="B_C" edges="B2TL1 TL12TL2 TL22C"/>
            <route id="B_D" edges="B2TL1 TL12TL2 TL22D"/>
            <route id="B_E" edges="B2TL1 TL12TL2 TL22E"/>
            <route id="B_F" edges="B2TL1 TL12F"/>

            <route id="C_A" edges="C2TL2 TL22TL1 TL12A"/>
            <route id="C_B" edges="C2TL2 TL22TL1 TL12B"/>
            <route id="C_D" edges="C2TL2 TL22D"/>
            <route id="C_E" edges="C2TL2 TL22E"/>
            <route id="C_F" edges="C2TL2 TL22TL1 TL12F"/>

            <route id="D_A" edges="D2TL2 TL22TL1 TL12A"/>
            <route id="D_B" edges="D2TL2 TL22TL1 TL12B"/>
            <route id="D_C" edges="D2TL2 TL22C"/>
            <route id="D_E" edges="D2TL2 TL22E"/>
            <route id="D_F" edges="D2TL2 TL22TL1 TL12F"/>

            <route id="E_A" edges="E2TL2 TL22TL1 TL12A"/>
            <route id="E_B" edges="E2TL2 TL22TL1 TL12B"/>
            <route id="E_C" edges="E2TL2 TL22C"/>
            <route id="E_D" edges="E2TL2 TL22D"/>
            <route id="E_F" edges="E2TL2 TL22TL1 TL12F"/>

            <route id="F_A" edges="F2TL1 TL12A"/>
            <route id="F_B" edges="F2TL1 TL12B"/>
            <route id="F_C" edges="F2TL1 TL12TL2 TL22C"/>
            <route id="F_D" edges="F2TL1 TL12TL2 TL22D"/>
            <route id="F_E" edges="F2TL1 TL12TL2 TL22E"/>
    <vehicle id="F_C0" type="low_priority" route="F_C" depart="66.0" departLane="random" departSpeed="10" />
    <vehicle id="D_F1" type="low_priority" route="D_F" depart="78.0" departLane="random" departSpeed="10" />
    <vehicle id="F_E2" type="low_priority" route="F_E" depart="123.0" departLane="random" departSpeed="10" />
    <vehicle id="B_E3" type="low_priority" route="B_E" depart="124.0" departLane="random" departSpeed="10" />
    <vehicle id="D_E4" type="low_priority" route="D_E" depart="132.0" departLane="random" departSpeed="10" />
    <vehicle id="A_E5" type="low_priority" route="A_E" depart="142.0" departLane="random" departSpeed="10" />
    <vehicle id="C_F6" type="low_priority" route="C_F" depart="145.0" departLane="random" departSpeed="10" />
    <vehicle id="E_F7" type="low_priority" route="E_F" depart="146.0" departLane="random" departSpeed="10" />
    <vehicle id="D_E8" type="low_priority" route="D_E" depart="185.0" departLane="random" departSpeed="10" />
    <vehicle id="F_B9" type="low_priority" route="F_B" depart="186.0" departLane="random" departSpeed="10" />
    <vehicle id="E_F10" type="low_priority" route="E_F" depart="188.0" departLane="random" departSpeed="10" />
    <vehicle id="F_A11" type="low_priority" route="F_A" depart="189.0" departLane="random" departSpeed="10" />
    <vehicle id="A_C12" type="low_priority" route="A_C" depart="189.0" departLane="random" departSpeed="10" />
    <vehicle id="D_B13" type="low_priority" route="D_B" depart="202.0" departLane="random" departSpeed="10" />
    <vehicle id="F_B14" type="low_priority" route="F_B" depart="212.0" departLane="random" departSpeed="10" />
    <vehicle id="A_E15" type="low_priority" route="A_E" depart="212.0" departLane="random" departSpeed="10" />
    <vehicle id="F_D16" type="low_priority" route="F_D" depart="222.0" departLane="random" departSpeed="10" />
    <vehicle id="F_A17" type="low_priority" route="F_A" depart="243.0" departLane="random" departSpeed="10" />
    <vehicle id="B_C18" type="low_priority" route="B_C" depart="243.0" departLane="random" departSpeed="10" />
    <vehicle id="E_C19" type="low_priority" route="E_C" depart="247.0" departLane="random" departSpeed="10" />
    <vehicle id="F_B20" type="low_priority" route="F_B" depart="250.0" departLane="random" departSpeed="10" />
    <vehicle id="PF_B21" type="high_priority" route="F_B" depart="267.0" departLane="random" departSpeed="10" />
    <vehicle id="F_C22" type="low_priority" route="F_C" depart="273.0" departLane="random" departSpeed="10" />
    <vehicle id="D_E23" type="low_priority" route="D_E" depart="277.0" departLane="random" departSpeed="10" />
    <vehicle id="B_D24" type="low_priority" route="B_D" depart="289.0" departLane="random" departSpeed="10" />
    <vehicle id="E_D25" type="low_priority" route="E_D" depart="290.0" departLane="random" departSpeed="10" />
    <vehicle id="F_C26" type="low_priority" route="F_C" depart="292.0" departLane="random" departSpeed="10" />
    <vehicle id="B_A27" type="low_priority" route="B_A" depart="294.0" departLane="random" departSpeed="10" />
    <vehicle id="PB_D28" type="high_priority" route="B_D" depart="303.0" departLane="random" departSpeed="10" />
    <vehicle id="D_E29" type="low_priority" route="D_E" depart="308.0" departLane="random" departSpeed="10" />
    <vehicle id="B_E30" type="low_priority" route="B_E" depart="313.0" departLane="random" departSpeed="10" />
    <vehicle id="B_A31" type="low_priority" route="B_A" depart="318.0" departLane="random" departSpeed="10" />
    <vehicle id="F_E32" type="low_priority" route="F_E" depart="322.0" departLane="random" departSpeed="10" />
    <vehicle id="C_D33" type="low_priority" route="C_D" depart="322.0" departLane="random" departSpeed="10" />
    <vehicle id="C_D34" type="low_priority" route="C_D" depart="339.0" departLane="random" departSpeed="10" />
    <vehicle id="B_A35" type="low_priority" route="B_A" depart="342.0" departLane="random" departSpeed="10" />
    <vehicle id="A_B36" type="low_priority" route="A_B" depart="344.0" departLane="random" departSpeed="10" />
    <vehicle id="E_D37" type="low_priority" route="E_D" depart="344.0" departLane="random" departSpeed="10" />
    <vehicle id="B_C38" type="low_priority" route="B_C" depart="352.0" departLane="random" departSpeed="10" />
    <vehicle id="A_D39" type="low_priority" route="A_D" depart="353.0" departLane="random" departSpeed="10" />
    <vehicle id="A_B40" type="low_priority" route="A_B" depart="356.0" departLane="random" departSpeed="10" />
    <vehicle id="A_E41" type="low_priority" route="A_E" depart="364.0" departLane="random" departSpeed="10" />
    <vehicle id="F_C42" type="low_priority" route="F_C" depart="364.0" departLane="random" departSpeed="10" />
    <vehicle id="E_A43" type="low_priority" route="E_A" depart="367.0" departLane="random" departSpeed="10" />
    <vehicle id="B_D44" type="low_priority" route="B_D" depart="370.0" departLane="random" departSpeed="10" />
    <vehicle id="F_D45" type="low_priority" route="F_D" depart="373.0" departLane="random" departSpeed="10" />
    <vehicle id="B_E46" type="low_priority" route="B_E" depart="381.0" departLane="random" departSpeed="10" />
    <vehicle id="A_C47" type="low_priority" route="A_C" depart="385.0" departLane="random" departSpeed="10" />
    <vehicle id="C_D48" type="low_priority" route="C_D" depart="387.0" departLane="random" departSpeed="10" />
    <vehicle id="C_A49" type="low_priority" route="C_A" depart="393.0" departLane="random" departSpeed="10" />
    <vehicle id="E_D50" type="low_priority" route="E_D" depart="400.0" departLane="random" departSpeed="10" />
    <vehicle id="A_D51" type="low_priority" route="A_D" depart="402.0" departLane="random" departSpeed="10" />
    <vehicle id="D_C52" type="low_priority" route="D_C" depart="402.0" departLane="random" departSpeed="10" />
    <vehicle id="E_B53" type="low_priority" route="E_B" depart="404.0" departLane="random" departSpeed="10" />
    <vehicle id="F_A54" type="low_priority" route="F_A" depart="406.0" departLane="random" departSpeed="10" />
    <vehicle id="D_B55" type="low_priority" route="D_B" depart="411.0" departLane="random" departSpeed="10" />
    <vehicle id="D_E56" type="low_priority" route="D_E" depart="413.0" departLane="random" departSpeed="10" />
    <vehicle id="B_D57" type="low_priority" route="B_D" depart="417.0" departLane="random" departSpeed="10" />
    <vehicle id="C_B58" type="low_priority" route="C_B" depart="420.0" departLane="random" departSpeed="10" />
    <vehicle id="C_D59" type="low_priority" route="C_D" depart="420.0" departLane="random" departSpeed="10" />
    <vehicle id="F_A60" type="low_priority" route="F_A" depart="420.0" departLane="random" departSpeed="10" />
    <vehicle id="E_C61" type="low_priority" route="E_C" depart="424.0" departLane="random" departSpeed="10" />
    <vehicle id="E_D62" type="low_priority" route="E_D" depart="433.0" departLane="random" departSpeed="10" />
    <vehicle id="F_D63" type="low_priority" route="F_D" depart="433.0" departLane="random" departSpeed="10" />
    <vehicle id="F_E64" type="low_priority" route="F_E" depart="437.0" departLane="random" departSpeed="10" />
    <vehicle id="A_B65" type="low_priority" route="A_B" depart="444.0" departLane="random" departSpeed="10" />
    <vehicle id="D_F66" type="low_priority" route="D_F" depart="444.0" departLane="random" departSpeed="10" />
    <vehicle id="E_C67" type="low_priority" route="E_C" depart="446.0" departLane="random" departSpeed="10" />
    <vehicle id="D_F68" type="low_priority" route="D_F" depart="449.0" departLane="random" departSpeed="10" />
    <vehicle id="A_C69" type="low_priority" route="A_C" depart="456.0" departLane="random" departSpeed="10" />
    <vehicle id="A_C70" type="low_priority" route="A_C" depart="457.0" departLane="random" departSpeed="10" />
    <vehicle id="D_A71" type="low_priority" route="D_A" depart="461.0" departLane="random" departSpeed="10" />
    <vehicle id="B_C72" type="low_priority" route="B_C" depart="461.0" departLane="random" departSpeed="10" />
    <vehicle id="PB_F73" type="high_priority" route="B_F" depart="464.0" departLane="random" departSpeed="10" />
    <vehicle id="E_C74" type="low_priority" route="E_C" depart="471.0" departLane="random" departSpeed="10" />
    <vehicle id="C_F75" type="low_priority" route="C_F" depart="471.0" departLane="random" departSpeed="10" />
    <vehicle id="A_C76" type="low_priority" route="A_C" depart="472.0" departLane="random" departSpeed="10" />
    <vehicle id="D_E77" type="low_priority" route="D_E" depart="473.0" departLane="random" departSpeed="10" />
    <vehicle id="A_C78" type="low_priority" route="A_C" depart="483.0" departLane="random" departSpeed="10" />
    <vehicle id="C_D79" type="low_priority" route="C_D" depart="485.0" departLane="random" departSpeed="10" />
    <vehicle id="F_E80" type="low_priority" route="F_E" depart="490.0" departLane="random" departSpeed="10" />
    <vehicle id="E_D81" type="low_priority" route="E_D" depart="496.0" departLane="random" departSpeed="10" />
    <vehicle id="C_D82" type="low_priority" route="C_D" depart="499.0" departLane="random" departSpeed="10" />
    <vehicle id="F_B83" type="low_priority" route="F_B" depart="502.0" departLane="random" departSpeed="10" />
    <vehicle id="B_D84" type="low_priority" route="B_D" depart="504.0" departLane="random" departSpeed="10" />
    <vehicle id="C_F85" type="low_priority" route="C_F" depart="504.0" departLane="random" departSpeed="10" />
    <vehicle id="B_A86" type="low_priority" route="B_A" depart="505.0" departLane="random" departSpeed="10" />
    <vehicle id="F_D87" type="low_priority" route="F_D" depart="506.0" departLane="random" departSpeed="10" />
    <vehicle id="D_C88" type="low_priority" route="D_C" depart="507.0" departLane="random" departSpeed="10" />
    <vehicle id="C_B89" type="low_priority" route="C_B" depart="508.0" departLane="random" departSpeed="10" />
    <vehicle id="PC_A90" type="high_priority" route="C_A" depart="509.0" departLane="random" departSpeed="10" />
    <vehicle id="B_C91" type="low_priority" route="B_C" depart="515.0" departLane="random" departSpeed="10" />
    <vehicle id="B_C92" type="low_priority" route="B_C" depart="521.0" departLane="random" departSpeed="10" />
    <vehicle id="PD_A93" type="high_priority" route="D_A" depart="523.0" departLane="random" departSpeed="10" />
    <vehicle id="F_D94" type="low_priority" route="F_D" depart="523.0" departLane="random" departSpeed="10" />
    <vehicle id="C_F95" type="low_priority" route="C_F" depart="523.0" departLane="random" departSpeed="10" />
    <vehicle id="A_F96" type="low_priority" route="A_F" depart="527.0" departLane="random" departSpeed="10" />
    <vehicle id="B_A97" type="low_priority" route="B_A" depart="527.0" departLane="random" departSpeed="10" />
    <vehicle id="E_F98" type="low_priority" route="E_F" depart="532.0" departLane="random" departSpeed="10" />
    <vehicle id="F_A99" type="low_priority" route="F_A" depart="536.0" departLane="random" departSpeed="10" />
    <vehicle id="D_E100" type="low_priority" route="D_E" depart="540.0" departLane="random" departSpeed="10" />
    <vehicle id="A_E101" type="low_priority" route="A_E" depart="541.0" departLane="random" departSpeed="10" />
    <vehicle id="C_F102" type="low_priority" route="C_F" depart="544.0" departLane="random" departSpeed="10" />
    <vehicle id="C_F103" type="low_priority" route="C_F" depart="548.0" departLane="random" departSpeed="10" />
    <vehicle id="PC_A104" type="high_priority" route="C_A" depart="551.0" departLane="random" departSpeed="10" />
    <vehicle id="A_F105" type="low_priority" route="A_F" depart="559.0" departLane="random" departSpeed="10" />
    <vehicle id="B_E106" type="low_priority" route="B_E" depart="561.0" departLane="random" departSpeed="10" />
    <vehicle id="F_A107" type="low_priority" route="F_A" depart="561.0" departLane="random" departSpeed="10" />
    <vehicle id="E_B108" type="low_priority" route="E_B" depart="562.0" departLane="random" departSpeed="10" />
    <vehicle id="F_B109" type="low_priority" route="F_B" depart="562.0" departLane="random" departSpeed="10" />
    <vehicle id="C_A110" type="low_priority" route="C_A" depart="565.0" departLane="random" departSpeed="10" />
    <vehicle id="PF_E111" type="high_priority" route="F_E" depart="567.0" departLane="random" departSpeed="10" />
    <vehicle id="A_F112" type="low_priority" route="A_F" depart="568.0" departLane="random" departSpeed="10" />
    <vehicle id="B_F113" type="low_priority" route="B_F" depart="570.0" departLane="random" departSpeed="10" />
    <vehicle id="E_C114" type="low_priority" route="E_C" depart="571.0" departLane="random" departSpeed="10" />
    <vehicle id="B_A115" type="low_priority" route="B_A" depart="577.0" departLane="random" departSpeed="10" />
    <vehicle id="A_F116" type="low_priority" route="A_F" depart="584.0" departLane="random" departSpeed="10" />
    <vehicle id="A_F117" type="low_priority" route="A_F" depart="584.0" departLane="random" departSpeed="10" />
    <vehicle id="D_B118" type="low_priority" route="D_B" depart="590.0" departLane="random" departSpeed="10" />
    <vehicle id="B_C119" type="low_priority" route="B_C" depart="592.0" departLane="random" departSpeed="10" />
    <vehicle id="A_C120" type="low_priority" route="A_C" depart="593.0" departLane="random" departSpeed="10" />
    <vehicle id="D_C121" type="low_priority" route="D_C" depart="593.0" departLane="random" departSpeed="10" />
    <vehicle id="D_C122" type="low_priority" route="D_C" depart="594.0" departLane="random" departSpeed="10" />
    <vehicle id="C_F123" type="low_priority" route="C_F" depart="594.0" departLane="random" departSpeed="10" />
    <vehicle id="D_C124" type="low_priority" route="D_C" depart="596.0" departLane="random" departSpeed="10" />
    <vehicle id="B_C125" type="low_priority" route="B_C" depart="596.0" departLane="random" departSpeed="10" />
    <vehicle id="E_D126" type="low_priority" route="E_D" depart="599.0" departLane="random" departSpeed="10" />
    <vehicle id="A_C127" type="low_priority" route="A_C" depart="599.0" departLane="random" departSpeed="10" />
    <vehicle id="F_A128" type="low_priority" route="F_A" depart="606.0" departLane="random" departSpeed="10" />
    <vehicle id="F_C129" type="low_priority" route="F_C" depart="608.0" departLane="random" departSpeed="10" />
    <vehicle id="A_F130" type="low_priority" route="A_F" depart="609.0" departLane="random" departSpeed="10" />
    <vehicle id="D_E131" type="low_priority" route="D_E" depart="612.0" departLane="random" departSpeed="10" />
    <vehicle id="C_B132" type="low_priority" route="C_B" depart="614.0" departLane="random" departSpeed="10" />
    <vehicle id="D_B133" type="low_priority" route="D_B" depart="614.0" departLane="random" departSpeed="10" />
    <vehicle id="B_E134" type="low_priority" route="B_E" depart="618.0" departLane="random" departSpeed="10" />
    <vehicle id="PD_F135" type="high_priority" route="D_F" depart="623.0" departLane="random" departSpeed="10" />
    <vehicle id="B_D136" type="low_priority" route="B_D" depart="625.0" departLane="random" departSpeed="10" />
    <vehicle id="C_A137" type="low_priority" route="C_A" depart="630.0" departLane="random" departSpeed="10" />
    <vehicle id="B_D138" type="low_priority" route="B_D" depart="632.0" departLane="random" departSpeed="10" />
    <vehicle id="D_E139" type="low_priority" route="D_E" depart="634.0" departLane="random" departSpeed="10" />
    <vehicle id="F_D140" type="low_priority" route="F_D" depart="635.0" departLane="random" departSpeed="10" />
    <vehicle id="C_F141" type="low_priority" route="C_F" depart="636.0" departLane="random" departSpeed="10" />
    <vehicle id="C_A142" type="low_priority" route="C_A" depart="640.0" departLane="random" departSpeed="10" />
    <vehicle id="E_D143" type="low_priority" route="E_D" depart="643.0" departLane="random" departSpeed="10" />
    <vehicle id="F_E144" type="low_priority" route="F_E" depart="645.0" departLane="random" departSpeed="10" />
    <vehicle id="B_A145" type="low_priority" route="B_A" depart="645.0" departLane="random" departSpeed="10" />
    <vehicle id="PE_B146" type="high_priority" route="E_B" depart="646.0" departLane="random" departSpeed="10" />
    <vehicle id="B_E147" type="low_priority" route="B_E" depart="653.0" departLane="random" departSpeed="10" />
    <vehicle id="D_F148" type="low_priority" route="D_F" depart="654.0" departLane="random" departSpeed="10" />
    <vehicle id="C_B149" type="low_priority" route="C_B" depart="654.0" departLane="random" departSpeed="10" />
    <vehicle id="B_C150" type="low_priority" route="B_C" depart="663.0" departLane="random" departSpeed="10" />
    <vehicle id="F_D151" type="low_priority" route="F_D" depart="663.0" departLane="random" departSpeed="10" />
    <vehicle id="F_D152" type="low_priority" route="F_D" depart="664.0" departLane="random" departSpeed="10" />
    <vehicle id="F_C153" type="low_priority" route="F_C" depart="664.0" departLane="random" departSpeed="10" />
    <vehicle id="C_F154" type="low_priority" route="C_F" depart="669.0" departLane="random" departSpeed="10" />
    <vehicle id="PB_D155" type="high_priority" route="B_D" depart="670.0" departLane="random" departSpeed="10" />
    <vehicle id="F_D156" type="low_priority" route="F_D" depart="673.0" departLane="random" departSpeed="10" />
    <vehicle id="E_C157" type="low_priority" route="E_C" depart="683.0" departLane="random" departSpeed="10" />
    <vehicle id="PB_D158" type="high_priority" route="B_D" depart="685.0" departLane="random" departSpeed="10" />
    <vehicle id="F_C159" type="low_priority" route="F_C" depart="685.0" departLane="random" departSpeed="10" />
    <vehicle id="D_C160" type="low_priority" route="D_C" depart="686.0" departLane="random" departSpeed="10" />
    <vehicle id="C_E161" type="low_priority" route="C_E" depart="686.0" departLane="random" departSpeed="10" />
    <vehicle id="D_E162" type="low_priority" route="D_E" depart="690.0" departLane="random" departSpeed="10" />
    <vehicle id="E_D163" type="low_priority" route="E_D" depart="693.0" departLane="random" departSpeed="10" />
    <vehicle id="C_E164" type="low_priority" route="C_E" depart="694.0" departLane="random" departSpeed="10" />
    <vehicle id="C_D165" type="low_priority" route="C_D" depart="697.0" departLane="random" departSpeed="10" />
    <vehicle id="B_A166" type="low_priority" route="B_A" depart="698.0" departLane="random" departSpeed="10" />
    <vehicle id="F_A167" type="low_priority" route="F_A" depart="699.0" departLane="random" departSpeed="10" />
    <vehicle id="F_D168" type="low_priority" route="F_D" depart="700.0" departLane="random" departSpeed="10" />
    <vehicle id="C_A169" type="low_priority" route="C_A" depart="703.0" departLane="random" departSpeed="10" />
    <vehicle id="E_B170" type="low_priority" route="E_B" depart="704.0" departLane="random" departSpeed="10" />
    <vehicle id="C_F171" type="low_priority" route="C_F" depart="715.0" departLane="random" departSpeed="10" />
    <vehicle id="E_D172" type="low_priority" route="E_D" depart="718.0" departLane="random" departSpeed="10" />
    <vehicle id="C_F173" type="low_priority" route="C_F" depart="722.0" departLane="random" departSpeed="10" />
    <vehicle id="B_A174" type="low_priority" route="B_A" depart="723.0" departLane="random" departSpeed="10" />
    <vehicle id="E_A175" type="low_priority" route="E_A" depart="723.0" departLane="random" departSpeed="10" />
    <vehicle id="D_E176" type="low_priority" route="D_E" depart="723.0" departLane="random" departSpeed="10" />
    <vehicle id="B_A177" type="low_priority" route="B_A" depart="726.0" departLane="random" departSpeed="10" />
    <vehicle id="F_B178" type="low_priority" route="F_B" depart="728.0" departLane="random" departSpeed="10" />
    <vehicle id="C_A179" type="low_priority" route="C_A" depart="731.0" departLane="random" departSpeed="10" />
    <vehicle id="C_D180" type="low_priority" route="C_D" depart="733.0" departLane="random" departSpeed="10" />
    <vehicle id="D_B181" type="low_priority" route="D_B" depart="734.0" departLane="random" departSpeed="10" />
    <vehicle id="C_B182" type="low_priority" route="C_B" depart="735.0" departLane="random" departSpeed="10" />
    <vehicle id="A_B183" type="low_priority" route="A_B" depart="741.0" departLane="random" departSpeed="10" />
    <vehicle id="A_F184" type="low_priority" route="A_F" depart="744.0" departLane="random" departSpeed="10" />
    <vehicle id="A_F185" type="low_priority" route="A_F" depart="747.0" departLane="random" departSpeed="10" />
    <vehicle id="F_E186" type="low_priority" route="F_E" depart="751.0" departLane="random" departSpeed="10" />
    <vehicle id="E_D187" type="low_priority" route="E_D" depart="751.0" departLane="random" departSpeed="10" />
    <vehicle id="C_E188" type="low_priority" route="C_E" depart="754.0" departLane="random" departSpeed="10" />
    <vehicle id="C_F189" type="low_priority" route="C_F" depart="755.0" departLane="random" departSpeed="10" />
    <vehicle id="A_F190" type="low_priority" route="A_F" depart="755.0" departLane="random" departSpeed="10" />
    <vehicle id="PB_E191" type="high_priority" route="B_E" depart="761.0" departLane="random" departSpeed="10" />
    <vehicle id="F_C192" type="low_priority" route="F_C" depart="761.0" departLane="random" departSpeed="10" />
    <vehicle id="B_D193" type="low_priority" route="B_D" depart="762.0" departLane="random" departSpeed="10" />
    <vehicle id="C_D194" type="low_priority" route="C_D" depart="763.0" departLane="random" departSpeed="10" />
    <vehicle id="F_C195" type="low_priority" route="F_C" depart="767.0" departLane="random" departSpeed="10" />
    <vehicle id="A_F196" type="low_priority" route="A_F" depart="772.0" departLane="random" departSpeed="10" />
    <vehicle id="C_D197" type="low_priority" route="C_D" depart="782.0" departLane="random" departSpeed="10" />
    <vehicle id="C_A198" type="low_priority" route="C_A" depart="782.0" departLane="random" departSpeed="10" />
    <vehicle id="F_E199" type="low_priority" route="F_E" depart="787.0" departLane="random" departSpeed="10" />
    <vehicle id="D_B200" type="low_priority" route="D_B" depart="788.0" departLane="random" departSpeed="10" />
    <vehicle id="D_E201" type="low_priority" route="D_E" depart="789.0" departLane="random" departSpeed="10" />
    <vehicle id="C_F202" type="low_priority" route="C_F" depart="789.0" departLane="random" departSpeed="10" />
    <vehicle id="E_F203" type="low_priority" route="E_F" depart="798.0" departLane="random" departSpeed="10" />
    <vehicle id="D_E204" type="low_priority" route="D_E" depart="800.0" departLane="random" departSpeed="10" />
    <vehicle id="C_D205" type="low_priority" route="C_D" depart="802.0" departLane="random" departSpeed="10" />
    <vehicle id="C_A206" type="low_priority" route="C_A" depart="803.0" departLane="random" departSpeed="10" />
    <vehicle id="C_B207" type="low_priority" route="C_B" depart="803.0" departLane="random" departSpeed="10" />
    <vehicle id="B_C208" type="low_priority" route="B_C" depart="810.0" departLane="random" departSpeed="10" />
    <vehicle id="B_C209" type="low_priority" route="B_C" depart="814.0" departLane="random" departSpeed="10" />
    <vehicle id="D_F210" type="low_priority" route="D_F" depart="815.0" departLane="random" departSpeed="10" />
    <vehicle id="C_D211" type="low_priority" route="C_D" depart="815.0" departLane="random" departSpeed="10" />
    <vehicle id="PE_D212" type="high_priority" route="E_D" depart="818.0" departLane="random" departSpeed="10" />
    <vehicle id="F_C213" type="low_priority" route="F_C" depart="821.0" departLane="random" departSpeed="10" />
    <vehicle id="D_B214" type="low_priority" route="D_B" depart="822.0" departLane="random" departSpeed="10" />
    <vehicle id="E_F215" type="low_priority" route="E_F" depart="827.0" departLane="random" departSpeed="10" />
    <vehicle id="E_A216" type="low_priority" route="E_A" depart="830.0" departLane="random" departSpeed="10" />
    <vehicle id="B_C217" type="low_priority" route="B_C" depart="830.0" departLane="random" departSpeed="10" />
    <vehicle id="F_C218" type="low_priority" route="F_C" depart="833.0" departLane="random" departSpeed="10" />
    <vehicle id="E_C219" type="low_priority" route="E_C" depart="833.0" departLane="random" departSpeed="10" />
    <vehicle id="B_A220" type="low_priority" route="B_A" depart="836.0" departLane="random" departSpeed="10" />
    <vehicle id="D_E221" type="low_priority" route="D_E" depart="836.0" departLane="random" departSpeed="10" />
    <vehicle id="D_B222" type="low_priority" route="D_B" depart="836.0" departLane="random" departSpeed="10" />
    <vehicle id="E_D223" type="low_priority" route="E_D" depart="838.0" departLane="random" departSpeed="10" />
    <vehicle id="A_E224" type="low_priority" route="A_E" depart="840.0" departLane="random" departSpeed="10" />
    <vehicle id="A_B225" type="low_priority" route="A_B" depart="843.0" departLane="random" departSpeed="10" />
    <vehicle id="E_B226" type="low_priority" route="E_B" depart="844.0" departLane="random" departSpeed="10" />
    <vehicle id="D_A227" type="low_priority" route="D_A" depart="845.0" departLane="random" departSpeed="10" />
    <vehicle id="F_C228" type="low_priority" route="F_C" depart="846.0" departLane="random" departSpeed="10" />
    <vehicle id="C_A229" type="low_priority" route="C_A" depart="846.0" departLane="random" departSpeed="10" />
    <vehicle id="C_B230" type="low_priority" route="C_B" depart="857.0" departLane="random" departSpeed="10" />
    <vehicle id="C_F231" type="low_priority" route="C_F" depart="858.0" departLane="random" departSpeed="10" />
    <vehicle id="C_B232" type="low_priority" route="C_B" depart="865.0" departLane="random" departSpeed="10" />
    <vehicle id="B_C233" type="low_priority" route="B_C" depart="867.0" departLane="random" departSpeed="10" />
    <vehicle id="B_C234" type="low_priority" route="B_C" depart="868.0" departLane="random" departSpeed="10" />
    <vehicle id="D_A235" type="low_priority" route="D_A" depart="871.0" departLane="random" departSpeed="10" />
    <vehicle id="PE_A236" type="high_priority" route="E_A" depart="875.0" departLane="random" departSpeed="10" />
    <vehicle id="B_A237" type="low_priority" route="B_A" depart="878.0" departLane="random" departSpeed="10" />
    <vehicle id="A_B238" type="low_priority" route="A_B" depart="879.0" departLane="random" departSpeed="10" />
    <vehicle id="C_D239" type="low_priority" route="C_D" depart="881.0" departLane="random" departSpeed="10" />
    <vehicle id="B_A240" type="low_priority" route="B_A" depart="885.0" departLane="random" departSpeed="10" />