<?xml version="1.0" encoding="UTF-8"?>

<!-- generated on 2021-07-04 14:37:10 by Eclipse SUMO netedit Version 1.9.2
<configuration xmlns:xsi="http://www.w3.org/2001/XMLSchema-instance" xsi:noNamespaceSchemaLocation="http://sumo.dlr.de/xsd/netconvertConfiguration.xsd">

    <input>
        <sumo-net-file value="C:\Users\KRISHNA\Documents\Capstone\Capstone%20P2\Double\intersection\environment.net.xml"/>
    </input>

    <output>
        <output-file value="C:\Users\KRISHNA\Documents\Capstone\Capstone%20P2\Double\intersection\environment.net.xml"/>
    </output>

    <processing>
        <geometry.min-radius.fix.railways value="false"/>
        <geometry.max-grade.fix value="false"/>
        <offset.disable-normalization value="true"/>
        <lefthand value="false"/>
    </processing>

    <junctions>
        <no-turnarounds value="true"/>
        <junctions.corner-detail value="5"/>
        <junctions.limit-turn-speed value="5.5"/>
        <rectangular-lane-cut value="false"/>
    </junctions>

    <pedestrian>
        <walkingareas value="false"/>
    </pedestrian>

    <report>
        <aggregate-warnings value="5"/>
    </report>

</configuration>
-->

<net version="1.9" junctionCornerDetail="5" limitTurnSpeed="5.50" xmlns:xsi="http://www.w3.org/2001/XMLSchema-instance" xsi:noNamespaceSchemaLocation="http://sumo.dlr.de/xsd/net_file.xsd">

    <location netOffset="0.00,0.00" convBoundary="-500.00,-500.00,1000.00,500.00" origBoundary="-10000000000.00,-10000000000.00,10000000000.00,10000000000.00" projParameter="!"/>

    <edge id=":TL1_0" function="internal">
        <lane id=":TL1_0_0" index="0" speed="6.51" length="9.03" shape="-11.20,16.80 -11.55,14.35 -12.60,12.60 -14.35,11.55 -16.80,11.20"/>
    </edge>
    <edge id=":TL1_1" function="internal">
        <lane id=":TL1_1_0" index="0" speed="13.89" length="33.60" shape="-8.00,16.80 -8.00,-16.80"/>
        <lane id=":TL1_1_1" index="1" speed="13.89" length="33.60" shape="-4.80,16.80 -4.80,-16.80"/>
    </edge>
    <edge id=":TL1_3" function="internal">
        <lane id=":TL1_3_0" index="0" speed="11.36" length="29.67" shape="-1.60,16.80 -0.45,8.75 3.00,3.00 8.75,-0.45 16.80,-1.60"/>
    </edge>
    <edge id=":TL1_4" function="internal">
        <lane id=":TL1_4_0" index="0" speed="6.51" length="9.03" shape="16.80,11.20 14.35,11.55 12.60,12.60 11.55,14.35 11.20,16.80"/>
    </edge>
    <edge id=":TL1_5" function="internal">
        <lane id=":TL1_5_0" index="0" speed="13.89" length="33.60" shape="16.80,8.00 -16.80,8.00"/>
        <lane id=":TL1_5_1" index="1" speed="13.89" length="33.60" shape="16.80,4.80 -16.80,4.80"/>
    </edge>
    <edge id=":TL1_7" function="internal">
        <lane id=":TL1_7_0" index="0" speed="11.36" length="29.67" shape="16.80,1.60 8.75,0.45 3.00,-3.00 -0.45,-8.75 -1.60,-16.80"/>
    </edge>
    <edge id=":TL1_8" function="internal">
        <lane id=":TL1_8_0" index="0" speed="6.51" length="9.03" shape="11.20,-16.80 11.55,-14.35 12.60,-12.60 14.35,-11.55 16.80,-11.20"/>
    </edge>
    <edge id=":TL1_9" function="internal">
        <lane id=":TL1_9_0" index="0" speed="13.89" length="33.60" shape="8.00,-16.80 8.00,16.80"/>
        <lane id=":TL1_9_1" index="1" speed="13.89" length="33.60" shape="4.80,-16.80 4.80,16.80"/>
    </edge>
    <edge id=":TL1_11" function="internal">
        <lane id=":TL1_11_0" index="0" speed="11.36" length="29.67" shape="1.60,-16.80 0.45,-8.75 -3.00,-3.00 -8.75,0.45 -16.80,1.60"/>
    </edge>
    <edge id=":TL1_12" function="internal">
        <lane id=":TL1_12_0" index="0" speed="6.51" length="9.03" shape="-16.80,-11.20 -14.35,-11.55 -12.60,-12.60 -11.55,-14.35 -11.20,-16.80"/>
    </edge>
    <edge id=":TL1_13" function="internal">
        <lane id=":TL1_13_0" index="0" speed="13.89" length="33.60" shape="-16.80,-8.00 16.80,-8.00"/>
        <lane id=":TL1_13_1" index="1" speed="13.89" length="33.60" shape="-16.80,-4.80 16.80,-4.80"/>
    </edge>
    <edge id=":TL1_15" function="internal">
        <lane id=":TL1_15_0" index="0" speed="11.36" length="29.67" shape="-16.80,-1.60 -8.75,-0.45 -3.00,3.00 0.45,8.75 1.60,16.80"/>
    </edge>
    <edge id=":TL2_0" function="internal">
        <lane id=":TL2_0_0" index="0" speed="6.51" length="9.03" shape="488.80,16.80 488.45,14.35 487.40,12.60 485.65,11.55 483.20,11.20"/>
    </edge>
    <edge id=":TL2_1" function="internal">
        <lane id=":TL2_1_0" index="0" speed="13.89" length="33.60" shape="492.00,16.80 492.00,-16.80"/>
        <lane id=":TL2_1_1" index="1" speed="13.89" length="33.60" shape="495.20,16.80 495.20,-16.80"/>
    </edge>
    <edge id=":TL2_3" function="internal">
        <lane id=":TL2_3_0" index="0" speed="11.36" length="29.67" shape="498.40,16.80 499.55,8.75 503.00,3.00 508.75,-0.45 516.80,-1.60"/>
    </edge>
    <edge id=":TL2_4" function="internal">
        <lane id=":TL2_4_0" index="0" speed="6.51" length="9.03" shape="516.80,11.20 514.35,11.55 512.60,12.60 511.55,14.35 511.20,16.80"/>
    </edge>
    <edge id=":TL2_5" function="internal">
        <lane id=":TL2_5_0" index="0" speed="13.89" length="33.60" shape="516.80,8.00 483.20,8.00"/>
        <lane id=":TL2_5_1" index="1" speed="13.89" length="33.60" shape="516.80,4.80 483.20,4.80"/>
    </edge>
    <edge id=":TL2_7" function="internal">
        <lane id=":TL2_7_0" index="0" speed="11.36" length="29.67" shape="516.80,1.60 508.75,0.45 503.00,-3.00 499.55,-8.75 498.40,-16.80"/>
    </edge>
    <edge id=":TL2_8" function="internal">
        <lane id=":TL2_8_0" index="0" speed="6.51" length="9.03" shape="511.20,-16.80 511.55,-14.35 512.60,-12.60 514.35,-11.55 516.80,-11.20"/>
    </edge>
    <edge id=":TL2_9" function="internal">
        <lane id=":TL2_9_0" index="0" speed="13.89" length="33.60" shape="508.00,-16.80 508.00,16.80"/>
        <lane id=":TL2_9_1" index="1" speed="13.89" length="33.60" shape="504.80,-16.80 504.80,16.80"/>
    </edge>
    <edge id=":TL2_11" function="internal">
        <lane id=":TL2_11_0" index="0" speed="11.36" length="29.67" shape="501.60,-16.80 500.45,-8.75 497.00,-3.00 491.25,0.45 483.20,1.60"/>
    </edge>
    <edge id=":TL2_12" function="internal">
        <lane id=":TL2_12_0" index="0" speed="6.51" length="9.03" shape="483.20,-11.20 485.65,-11.55 487.40,-12.60 488.45,-14.35 488.80,-16.80"/>
    </edge>
    <edge id=":TL2_13" function="internal">
        <lane id=":TL2_13_0" index="0" speed="13.89" length="33.60" shape="483.20,-8.00 516.80,-8.00"/>
        <lane id=":TL2_13_1" index="1" speed="13.89" length="33.60" shape="483.20,-4.80 516.80,-4.80"/>
    </edge>
    <edge id=":TL2_15" function="internal">
        <lane id=":TL2_15_0" index="0" speed="11.36" length="29.67" shape="483.20,-1.60 491.25,-0.45 497.00,3.00 500.45,8.75 501.60,16.80"/>
    </edge>

    <edge id="A2TL1" from="A" to="TL1" priority="-1" length="500.00">
        <lane id="A2TL1_0" index="0" speed="13.89" length="500.00" shape="-500.00,-11.20 -16.80,-11.20"/>
        <lane id="A2TL1_1" index="1" speed="13.89" length="500.00" shape="-500.00,-8.00 -16.80,-8.00"/>
        <lane id="A2TL1_2" index="2" speed="13.89" length="500.00" shape="-500.00,-4.80 -16.80,-4.80"/>
        <lane id="A2TL1_3" index="3" speed="13.89" length="500.00" shape="-500.00,-1.60 -16.80,-1.60"/>
    </edge>
    <edge id="B2TL1" from="B" to="TL1" priority="-1" length="500.00">
        <lane id="B2TL1_0" index="0" speed="13.89" length="500.00" shape="-11.20,500.00 -11.20,16.80"/>
        <lane id="B2TL1_1" index="1" speed="13.89" length="500.00" shape="-8.00,500.00 -8.00,16.80"/>
        <lane id="B2TL1_2" index="2" speed="13.89" length="500.00" shape="-4.80,500.00 -4.80,16.80"/>
        <lane id="B2TL1_3" index="3" speed="13.89" length="500.00" shape="-1.60,500.00 -1.60,16.80"/>
    </edge>
    <edge id="C2TL2" from="C" to="TL2" priority="-1" length="500.00">
        <lane id="C2TL2_0" index="0" speed="13.89" length="500.00" shape="488.80,500.00 488.80,16.80"/>
        <lane id="C2TL2_1" index="1" speed="13.89" length="500.00" shape="492.00,500.00 492.00,16.80"/>
        <lane id="C2TL2_2" index="2" speed="13.89" length="500.00" shape="495.20,500.00 495.20,16.80"/>
        <lane id="C2TL2_3" index="3" speed="13.89" length="500.00" shape="498.40,500.00 498.40,16.80"/>
    </edge>
    <edge id="D2TL2" from="D" to="TL2" priority="-1" length="500.00">
        <lane id="D2TL2_0" index="0" speed="13.89" length="500.00" shape="1000.00,11.20 516.80,11.20"/>
        <lane id="D2TL2_1" index="1" speed="13.89" length="500.00" shape="1000.00,8.00 516.80,8.00"/>
        <lane id="D2TL2_2" index="2" speed="13.89" length="500.00" shape="1000.00,4.80 516.80,4.80"/>
        <lane id="D2TL2_3" index="3" speed="13.89" length="500.00" shape="1000.00,1.60 516.80,1.60"/>
    </edge>
    <edge id="E2TL2" from="E" to="TL2" priority="-1" length="500.00">
        <lane id="E2TL2_0" index="0" speed="13.89" length="500.00" shape="511.20,-500.00 511.20,-16.80"/>
        <lane id="E2TL2_1" index="1" speed="13.89" length="500.00" shape="508.00,-500.00 508.00,-16.80"/>
        <lane id="E2TL2_2" index="2" speed="13.89" length="500.00" shape="504.80,-500.00 504.80,-16.80"/>
        <lane id="E2TL2_3" index="3" speed="13.89" length="500.00" shape="501.60,-500.00 501.60,-16.80"/>
    </edge>
    <edge id="F2TL1" from="F" to="TL1" priority="-1" length="500.00">
        <lane id="F2TL1_0" index="0" speed="13.89" length="500.00" shape="11.20,-500.00 11.20,-16.80"/>
        <lane id="F2TL1_1" index="1" speed="13.89" length="500.00" shape="8.00,-500.00 8.00,-16.80"/>
        <lane id="F2TL1_2" index="2" speed="13.89" length="500.00" shape="4.80,-500.00 4.80,-16.80"/>
        <lane id="F2TL1_3" index="3" speed="13.89" length="500.00" shape="1.60,-500.00 1.60,-16.80"/>
    </edge>
    <edge id="TL12A" from="TL1" to="A" priority="-1" length="500.00">
        <lane id="TL12A_0" index="0" speed="13.89" length="500.00" shape="-16.80,11.20 -500.00,11.20"/>
        <lane id="TL12A_1" index="1" speed="13.89" length="500.00" shape="-16.80,8.00 -500.00,8.00"/>
        <lane id="TL12A_2" index="2" speed="13.89" length="500.00" shape="-16.80,4.80 -500.00,4.80"/>
        <lane id="TL12A_3" index="3" speed="13.89" length="500.00" shape="-16.80,1.60 -500.00,1.60"/>
    </edge>
    <edge id="TL12B" from="TL1" to="B" priority="-1" length="500.00">
        <lane id="TL12B_0" index="0" speed="13.89" length="500.00" shape="11.20,16.80 11.20,500.00"/>
        <lane id="TL12B_1" index="1" speed="13.89" length="500.00" shape="8.00,16.80 8.00,500.00"/>
        <lane id="TL12B_2" index="2" speed="13.89" length="500.00" shape="4.80,16.80 4.80,500.00"/>
        <lane id="TL12B_3" index="3" speed="13.89" length="500.00" shape="1.60,16.80 1.60,500.00"/>
    </edge>
    <edge id="TL12F" from="TL1" to="F" priority="-1" length="500.00">
        <lane id="TL12F_0" index="0" speed="13.89" length="500.00" shape="-11.20,-16.80 -11.20,-500.00"/>
        <lane id="TL12F_1" index="1" speed="13.89" length="500.00" shape="-8.00,-16.80 -8.00,-500.00"/>
        <lane id="TL12F_2" index="2" speed="13.89" length="500.00" shape="-4.80,-16.80 -4.80,-500.00"/>
        <lane id="TL12F_3" index="3" speed="13.89" length="500.00" shape="-1.60,-16.80 -1.60,-500.00"/>
    </edge>
    <edge id="TL12TL2" from="TL1" to="TL2" priority="-1" length="500.00">
        <lane id="TL12TL2_0" index="0" speed="13.89" length="500.00" shape="16.80,-11.20 483.20,-11.20"/>
        <lane id="TL12TL2_1" index="1" speed="13.89" length="500.00" shape="16.80,-8.00 483.20,-8.00"/>
        <lane id="TL12TL2_2" index="2" speed="13.89" length="500.00" shape="16.80,-4.80 483.20,-4.80"/>
        <lane id="TL12TL2_3" index="3" speed="13.89" length="500.00" shape="16.80,-1.60 483.20,-1.60"/>
    </edge>
    <edge id="TL22C" from="TL2" to="C" priority="-1" length="500.00">
        <lane id="TL22C_0" index="0" speed="13.89" length="500.00" shape="511.20,16.80 511.20,500.00"/>
        <lane id="TL22C_1" index="1" speed="13.89" length="500.00" shape="508.00,16.80 508.00,500.00"/>
        <lane id="TL22C_2" index="2" speed="13.89" length="500.00" shape="504.80,16.80 504.80,500.00"/>
        <lane id="TL22C_3" index="3" speed="13.89" length="500.00" shape="501.60,16.80 501.60,500.00"/>
    </edge>
    <edge id="TL22D" from="TL2" to="D" priority="-1" length="500.00">
        <lane id="TL22D_0" index="0" speed="13.89" length="500.00" shape="516.80,-11.20 1000.00,-11.20"/>
        <lane id="TL22D_1" index="1" speed="13.89" length="500.00" shape="516.80,-8.00 1000.00,-8.00"/>
        <lane id="TL22D_2" index="2" speed="13.89" length="500.00" shape="516.80,-4.80 1000.00,-4.80"/>
        <lane id="TL22D_3" index="3" speed="13.89" length="500.00" shape="516.80,-1.60 1000.00,-1.60"/>
    </edge>
    <edge id="TL22E" from="TL2" to="E" priority="-1" length="500.00">
        <lane id="TL22E_0" index="0" speed="13.89" length="500.00" shape="488.80,-16.80 488.80,-500.00"/>
        <lane id="TL22E_1" index="1" speed="13.89" length="500.00" shape="492.00,-16.80 492.00,-500.00"/>
        <lane id="TL22E_2" index="2" speed="13.89" length="500.00" shape="495.20,-16.80 495.20,-500.00"/>
        <lane id="TL22E_3" index="3" speed="13.89" length="500.00" shape="498.40,-16.80 498.40,-500.00"/>
    </edge>
    <edge id="TL22TL1" from="TL2" to="TL1" priority="-1" length="500.00">
        <lane id="TL22TL1_0" index="0" speed="13.89" length="500.00" shape="483.20,11.20 16.80,11.20"/>
        <lane id="TL22TL1_1" index="1" speed="13.89" length="500.00" shape="483.20,8.00 16.80,8.00"/>
        <lane id="TL22TL1_2" index="2" speed="13.89" length="500.00" shape="483.20,4.80 16.80,4.80"/>
        <lane id="TL22TL1_3" index="3" speed="13.89" length="500.00" shape="483.20,1.60 16.80,1.60"/>
    </edge>

    <tlLogic id="TL1" type="static" programID="0" offset="0">
        <phase duration="100" state="GGGGrrrrrrrrrrrr"/>
        <phase duration="100" state="yyyyrrrrrrrrrrrr"/>
        <phase duration="100" state="rrrrGGGGrrrrrrrr"/>
        <phase duration="100" state="rrrryyyyrrrrrrrr"/>
        <phase duration="100" state="rrrrrrrrGGGGrrrr"/>
        <phase duration="100" state="rrrrrrrryyyyrrrr"/>
        <phase duration="100" state="rrrrrrrrrrrrGGGG"/>
        <phase duration="100" state="rrrrrrrrrrrryyyy"/>
    </tlLogic>
    <tlLogic id="TL2" type="static" programID="0" offset="0">
        <phase duration="100" state="GGGGrrrrrrrrrrrr"/>
        <phase duration="100" state="yyyyrrrrrrrrrrrr"/>
        <phase duration="100" state="rrrrGGGGrrrrrrrr"/>
        <phase duration="100" state="rrrryyyyrrrrrrrr"/>
        <phase duration="100" state="rrrrrrrrGGGGrrrr"/>
        <phase duration="100" state="rrrrrrrryyyyrrrr"/>
        <phase duration="100" state="rrrrrrrrrrrrGGGG"/>
        <phase duration="100" state="rrrrrrrrrrrryyyy"/>
    </tlLogic>

    <junction id="A" type="dead_end" x="-500.00" y="0.00" incLanes="TL12A_0 TL12A_1 TL12A_2 TL12A_3" intLanes="" shape="-500.00,0.00 -500.00,12.80 -500.00,0.00"/>
    <junction id="B" type="dead_end" x="0.00" y="500.00" incLanes="TL12B_0 TL12B_1 TL12B_2 TL12B_3" intLanes="" shape="0.00,500.00 12.80,500.00 0.00,500.00"/>
    <junction id="C" type="dead_end" x="500.00" y="500.00" incLanes="TL22C_0 TL22C_1 TL22C_2 TL22C_3" intLanes="" shape="500.00,500.00 512.80,500.00 500.00,500.00"/>
    <junction id="D" type="dead_end" x="1000.00" y="0.00" incLanes="TL22D_0 TL22D_1 TL22D_2 TL22D_3" intLanes="" shape="1000.00,0.00 1000.00,-12.80 1000.00,0.00"/>
    <junction id="E" type="dead_end" x="500.00" y="-500.00" incLanes="TL22E_0 TL22E_1 TL22E_2 TL22E_3" intLanes="" shape="500.00,-500.00 487.20,-500.00 500.00,-500.00"/>
    <junction id="F" type="dead_end" x="0.00" y="-500.00" incLanes="TL12F_0 TL12F_1 TL12F_2 TL12F_3" intLanes="" shape="0.00,-500.00 -12.80,-500.00 0.00,-500.00"/>
    <junction id="TL1" type="traffic_light" x="0.00" y="0.00" incLanes="B2TL1_0 B2TL1_1 B2TL1_2 B2TL1_3 TL22TL1_0 TL22TL1_1 TL22TL1_2 TL22TL1_3 F2TL1_0 F2TL1_1 F2TL1_2 F2TL1_3 A2TL1_0 A2TL1_1 A2TL1_2 A2TL1_3" intLanes=":TL1_0_0 :TL1_1_0 :TL1_1_1 :TL1_3_0 :TL1_4_0 :TL1_5_0 :TL1_5_1 :TL1_7_0 :TL1_8_0 :TL1_9_0 :TL1_9_1 :TL1_11_0 :TL1_12_0 :TL1_13_0 :TL1_13_1 :TL1_15_0" shape="-12.80,16.80 12.80,16.80 13.24,14.58 13.80,13.80 14.58,13.24 15.58,12.91 16.80,12.80 16.80,-12.80 14.58,-13.24 13.80,-13.80 13.24,-14.58 12.91,-15.58 12.80,-16.80 -12.80,-16.80 -13.24,-14.58 -13.80,-13.80 -14.58,-13.24 -15.58,-12.91 -16.80,-12.80 -16.80,12.80 -14.58,13.24 -13.80,13.80 -13.24,14.58 -12.91,15.58">
        <request index="0"  response="0000000000000000" foes="0000000000000000" cont="0"/>
        <request index="1"  response="0000000000000000" foes="1110100001100000" cont="0"/>
        <request index="2"  response="0000000000000000" foes="1110100001100000" cont="0"/>
        <request index="3"  response="0000011000000000" foes="1000011011100000" cont="0"/>
        <request index="4"  response="0000000000000000" foes="0000000000000000" cont="0"/>
        <request index="5"  response="0000011000001110" foes="1000011000001110" cont="0"/>
        <request index="6"  response="0000011000001110" foes="1000011000001110" cont="0"/>
        <request index="7"  response="0110111000001000" foes="0110111000001000" cont="0"/>
        <request index="8"  response="0000000000000000" foes="0000000000000000" cont="0"/>
        <request index="9"  response="0000000000000000" foes="0110000011101000" cont="0"/>
        <request index="10" response="0000000000000000" foes="0110000011101000" cont="0"/>
        <request index="11" response="0000000000000110" foes="1110000010000110" cont="0"/>
        <request index="12" response="0000000000000000" foes="0000000000000000" cont="0"/>
        <request index="13" response="0000111000000110" foes="0000111010000110" cont="0"/>
        <request index="14" response="0000111000000110" foes="0000111010000110" cont="0"/>
        <request index="15" response="0000100001101110" foes="0000100001101110" cont="0"/>
    </junction>
    <junction id="TL2" type="traffic_light" x="500.00" y="0.00" incLanes="C2TL2_0 C2TL2_1 C2TL2_2 C2TL2_3 D2TL2_0 D2TL2_1 D2TL2_2 D2TL2_3 E2TL2_0 E2TL2_1 E2TL2_2 E2TL2_3 TL12TL2_0 TL12TL2_1 TL12TL2_2 TL12TL2_3" intLanes=":TL2_0_0 :TL2_1_0 :TL2_1_1 :TL2_3_0 :TL2_4_0 :TL2_5_0 :TL2_5_1 :TL2_7_0 :TL2_8_0 :TL2_9_0 :TL2_9_1 :TL2_11_0 :TL2_12_0 :TL2_13_0 :TL2_13_1 :TL2_15_0" shape="487.20,16.80 512.80,16.80 513.24,14.58 513.80,13.80 514.58,13.24 515.58,12.91 516.80,12.80 516.80,-12.80 514.58,-13.24 513.80,-13.80 513.24,-14.58 512.91,-15.58 512.80,-16.80 487.20,-16.80 486.76,-14.58 486.20,-13.80 485.42,-13.24 484.42,-12.91 483.20,-12.80 483.20,12.80 485.42,13.24 486.20,13.80 486.76,14.58 487.09,15.58">
        <request index="0"  response="0000000000000000" foes="0000000000000000" cont="0"/>
        <request index="1"  response="0000000000000000" foes="1110100001100000" cont="0"/>
        <request index="2"  response="0000000000000000" foes="1110100001100000" cont="0"/>
        <request index="3"  response="0000011000000000" foes="1000011011100000" cont="0"/>
        <request index="4"  response="0000000000000000" foes="0000000000000000" cont="0"/>
        <request index="5"  response="0000011000001110" foes="1000011000001110" cont="0"/>
        <request index="6"  response="0000011000001110" foes="1000011000001110" cont="0"/>
        <request index="7"  response="0110111000001000" foes="0110111000001000" cont="0"/>
        <request index="8"  response="0000000000000000" foes="0000000000000000" cont="0"/>
        <request index="9"  response="0000000000000000" foes="0110000011101000" cont="0"/>
        <request index="10" response="0000000000000000" foes="0110000011101000" cont="0"/>
        <request index="11" response="0000000000000110" foes="1110000010000110" cont="0"/>
        <request index="12" response="0000000000000000" foes="0000000000000000" cont="0"/>
        <request index="13" response="0000111000000110" foes="0000111010000110" cont="0"/>
        <request index="14" response="0000111000000110" foes="0000111010000110" cont="0"/>
        <request index="15" response="0000100001101110" foes="0000100001101110" cont="0"/>
    </junction>

    <connection from="A2TL1" to="TL12F" fromLane="0" toLane="0" via=":TL1_12_0" tl="TL1" linkIndex="12" dir="r" state="O"/>
    <connection from="A2TL1" to="TL12TL2" fromLane="1" toLane="1" via=":TL1_13_0" tl="TL1" linkIndex="13" dir="s" state="o"/>
    <connection from="A2TL1" to="TL12TL2" fromLane="2" toLane="2" via=":TL1_13_1" tl="TL1" linkIndex="14" dir="s" state="o"/>
    <connection from="A2TL1" to="TL12B" fromLane="3" toLane="3" via=":TL1_15_0" tl="TL1" linkIndex="15" dir="l" state="o"/>
    <connection from="B2TL1" to="TL12A" fromLane="0" toLane="0" via=":TL1_0_0" tl="TL1" linkIndex="0" dir="r" state="O"/>
    <connection from="B2TL1" to="TL12F" fromLane="1" toLane="1" via=":TL1_1_0" tl="TL1" linkIndex="1" dir="s" state="O"/>
    <connection from="B2TL1" to="TL12F" fromLane="2" toLane="2" via=":TL1_1_1" tl="TL1" linkIndex="2" dir="s" state="O"/>
    <connection from="B2TL1" to="TL12TL2" fromLane="3" toLane="3" via=":TL1_3_0" tl="TL1" linkIndex="3" dir="l" state="o"/>
    <connection from="C2TL2" to="TL22TL1" fromLane="0" toLane="0" via=":TL2_0_0" tl="TL2" linkIndex="0" dir="r" state="O"/>
    <connection from="C2TL2" to="TL22E" fromLane="1" toLane="1" via=":TL2_1_0" tl="TL2" linkIndex="1" dir="s" state="O"/>
    <connection from="C2TL2" to="TL22E" fromLane="2" toLane="2" via=":TL2_1_1" tl="TL2" linkIndex="2" dir="s" state="O"/>
    <connection from="C2TL2" to="TL22D" fromLane="3" toLane="3" via=":TL2_3_0" tl="TL2" linkIndex="3" dir="l" state="o"/>
    <connection from="D2TL2" to="TL22C" fromLane="0" toLane="0" via=":TL2_4_0" tl="TL2" linkIndex="4" dir="r" state="O"/>
    <connection from="D2TL2" to="TL22TL1" fromLane="1" toLane="1" via=":TL2_5_0" tl="TL2" linkIndex="5" dir="s" state="o"/>
    <connection from="D2TL2" to="TL22TL1" fromLane="2" toLane="2" via=":TL2_5_1" tl="TL2" linkIndex="6" dir="s" state="o"/>
    <connection from="D2TL2" to="TL22E" fromLane="3" toLane="3" via=":TL2_7_0" tl="TL2" linkIndex="7" dir="l" state="o"/>
    <connection from="E2TL2" to="TL22D" fromLane="0" toLane="0" via=":TL2_8_0" tl="TL2" linkIndex="8" dir="r" state="O"/>
    <connection from="E2TL2" to="TL22C" fromLane="1" toLane="1" via=":TL2_9_0" tl="TL2" linkIndex="9" dir="s" state="O"/>
    <connection from="E2TL2" to="TL22C" fromLane="2" toLane="2" via=":TL2_9_1" tl="TL2" linkIndex="10" dir="s" state="O"/>
    <connection from="E2TL2" to="TL22TL1" fromLane="3" toLane="3" via=":TL2_11_0" tl="TL2" linkIndex="11" dir="l" state="o"/>
    <connection from="F2TL1" to="TL12TL2" fromLane="0" toLane="0" via=":TL1_8_0" tl="TL1" linkIndex="8" dir="r" state="O"/>
    <connection from="F2TL1" to="TL12B" fromLane="1" toLane="1" via=":TL1_9_0" tl="TL1" linkIndex="9" dir="s" state="O"/>
    <connection from="F2TL1" to="TL12B" fromLane="2" toLane="2" via=":TL1_9_1" tl="TL1" linkIndex="10" dir="s" state="O"/>
    <connection from="F2TL1" to="TL12A" fromLane="3" toLane="3" via=":TL1_11_0" tl="TL1" linkIndex="11" dir="l" state="o"/>
    <connection from="TL12TL2" to="TL22E" fromLane="0" toLane="0" via=":TL2_12_0" tl="TL2" linkIndex="12" dir="r" state="O"/>
    <connection from="TL12TL2" to="TL22D" fromLane="1" toLane="1" via=":TL2_13_0" tl="TL2" linkIndex="13" dir="s" state="o"/>
    <connection from="TL12TL2" to="TL22D" fromLane="2" toLane="2" via=":TL2_13_1" tl="TL2" linkIndex="14" dir="s" state="o"/>
    <connection from="TL12TL2" to="TL22C" fromLane="3" toLane="3" via=":TL2_15_0" tl="TL2" linkIndex="15" dir="l" state="o"/>
    <connection from="TL22TL1" to="TL12B" fromLane="0" toLane="0" via=":TL1_4_0" tl="TL1" linkIndex="4" dir="r" state="O"/>
    <connection from="TL22TL1" to="TL12A" fromLane="1" toLane="1" via=":TL1_5_0" tl="TL1" linkIndex="5" dir="s" state="o"/>
    <connection from="TL22TL1" to="TL12A" fromLane="2" toLane="2" via=":TL1_5_1" tl="TL1" linkIndex="6" dir="s" state="o"/>
    <connection from="TL22TL1" to="TL12F" fromLane="3" toLane="3" via=":TL1_7_0" tl="TL1" linkIndex="7" dir="l" state="o"/>

    <connection from=":TL1_0" to="TL12A" fromLane="0" toLane="0" dir="r" state="M"/>
    <connection from=":TL1_1" to="TL12F" fromLane="0" toLane="1" dir="s" state="M"/>
    <connection from=":TL1_1" to="TL12F" fromLane="1" toLane="2" dir="s" state="M"/>
    <connection from=":TL1_3" to="TL12TL2" fromLane="0" toLane="3" dir="l" state="M"/>
    <connection from=":TL1_4" to="TL12B" fromLane="0" toLane="0" dir="r" state="M"/>
    <connection from=":TL1_5" to="TL12A" fromLane="0" toLane="1" dir="s" state="M"/>
    <connection from=":TL1_5" to="TL12A" fromLane="1" toLane="2" dir="s" state="M"/>
    <connection from=":TL1_7" to="TL12F" fromLane="0" toLane="3" dir="l" state="M"/>
    <connection from=":TL1_8" to="TL12TL2" fromLane="0" toLane="0" dir="r" state="M"/>
    <connection from=":TL1_9" to="TL12B" fromLane="0" toLane="1" dir="s" state="M"/>
    <connection from=":TL1_9" to="TL12B" fromLane="1" toLane="2" dir="s" state="M"/>
    <connection from=":TL1_11" to="TL12A" fromLane="0" toLane="3" dir="l" state="M"/>
    <connection from=":TL1_12" to="TL12F" fromLane="0" toLane="0" dir="r" state="M"/>
    <connection from=":TL1_13" to="TL12TL2" fromLane="0" toLane="1" dir="s" state="M"/>
    <connection from=":TL1_13" to="TL12TL2" fromLane="1" toLane="2" dir="s" state="M"/>
    <connection from=":TL1_15" to="TL12B" fromLane="0" toLane="3" dir="l" state="M"/>
    <connection from=":TL2_0" to="TL22TL1" fromLane="0" toLane="0" dir="r" state="M"/>
    <connection from=":TL2_1" to="TL22E" fromLane="0" toLane="1" dir="s" state="M"/>
    <connection from=":TL2_1" to="TL22E" fromLane="1" toLane="2" dir="s" state="M"/>
    <connection from=":TL2_3" to="TL22D" fromLane="0" toLane="3" dir="l" state="M"/>
    <connection from=":TL2_4" to="TL22C" fromLane="0" toLane="0" dir="r" state="M"/>
    <connection from=":TL2_5" to="TL22TL1" fromLane="0" toLane="1" dir="s" state="M"/>
    <connection from=":TL2_5" to="TL22TL1" fromLane="1" toLane="2" dir="s" state="M"/>
    <connection from=":TL2_7" to="TL22E" fromLane="0" toLane="3" dir="l" state="M"/>
    <connection from=":TL2_8" to="TL22D" fromLane="0" toLane="0" dir="r" state="M"/>
    <connection from=":TL2_9" to="TL22C" fromLane="0" toLane="1" dir="s" state="M"/>
    <connection from=":TL2_9" to="TL22C" fromLane="1" toLane="2" dir="s" state="M"/>
    <connection from=":TL2_11" to="TL22TL1" fromLane="0" toLane="3" dir="l" state="M"/>
    <connection from=":TL2_12" to="TL22E" fromLane="0" toLane="0" dir="r" state="M"/>
    <connection from=":TL2_13" to="TL22D" fromLane="0" toLane="1" dir="s" state="M"/>
    <connection from=":TL2_13" to="TL22D" fromLane="1" toLane="2" dir="s" state="M"/>
    <connection from=":TL2_15" to="TL22C" fromLane="0" toLane="3" dir="l" state="M"/>

</net>
