<routes>

            <vTypeDistribution id="low_priority">
                <vType id="standard_car" vClass="passenger" guiShape="passenger" speedDev="0.2" latAlignment="arbitrary" sigma="0.5" probability="0.5" />
                <vType id="bike" vClass="motorcycle" guiShape="motorcycle" speedDev="0.2" latAlignment="arbitrary" sigma="0.5" probability="0.1"/>
                <vType id="bus" vClass="bus" guiShape="truck" speedDev="0.2" latAlignment="arbitrary" sigma="0.5" probability="0.2"/>
                <vType id="taxi" vClass="taxi" guiShape="passenger/sedan" speedDev="0.2" latAlignment="arbitrary" sigma="0.5" color = "255,0,0" probability="0.2"/>
            </vTypeDistribution>

            <vTypeDistribution id="high_priority">
                <vType id="amb" vClass="emergency" guiShape="emergency" speedDev="0.2" latAlignment="arbitrary" probability="0.4"><param key="has.bluelight.device" value="true"/></vType>
                <vType id="pol" vClass="authority" guiShape="police" speedDev="0.4" latAlignment="arbitrary" probability="0.4"><param key="has.bluelight.device" value="true"/></vType>
                <vType id="fire" vClass="emergency" guiShape="firebrigade" speedDev="0.4" latAlignment="arbitrary" probability="0.2"><param key="has.bluelight.device" value="true"/></vType>
            </vTypeDistribution>

            <route id="A_B" edges="A2TL1 TL12B"/>
            <route id="A_C" edges="A2TL1 TL12TL2 TL22C"/>
            <route id="A_D" edges="A2TL1 TL12TL2 TL22D"/>
            <route id="A_E" edges="A2TL1 TL12TL2 TL22E"/>
            <route id="A_F" edges="A2TL1 TL12F"/>

            <route id="B_A" edges="B2TL1 TL12A"/>
            <route id="B_C" edges="B2TL1 TL12TL2 TL22C"/>
            <route id="B_D" edges="B2TL1 TL12TL2 TL22D"/>
            <route id="B_E" edges="B2TL1 TL12TL2 TL22E"/>
            <route id="B_F" edges="B2TL1 TL12F"/>

            <route id="C_A" edges="C2TL2 TL22TL1 TL12A"/>
            <route id="C_B" edges="C2TL2 TL22TL1 TL12B"/>
            <route id="C_D" edges="C2TL2 TL22D"/>
            <route id="C_E" edges="C2TL2 TL22E"/>
            <route id="C_F" edges="C2TL2 TL22TL1 TL12F"/>

            <route id="D_A" edges="D2TL2 TL22TL1 TL12A"/>
            <route id="D_B" edges="D2TL2 TL22TL1 TL12B"/>
            <route id="D_C" edges="D2TL2 TL22C"/>
            <route id="D_E" edges="D2TL2 TL22E"/>
            <route id="D_F" edges="D2TL2 TL22TL1 TL12F"/>

            <route id="E_A" edges="E2TL2 TL22TL1 TL12A"/>
            <route id="E_B" edges="E2TL2 TL22TL1 TL12B"/>
            <route id="E_C" edges="E2TL2 TL22C"/>
            <route id="E_D" edges="E2TL2 TL22D"/>
            <route id="E_F" edges="E2TL2 TL22TL1 TL12F"/>

            <route id="F_A" edges="F2TL1 TL12A"/>
            <route id="F_B" edges="F2TL1 TL12B"/>
            <route id="F_C" edges="F2TL1 TL12TL2 TL22C"/>
            <route id="F_D" edges="F2TL1 TL12TL2 TL22D"/>
            <route id="F_E" edges="F2TL1 TL12TL2 TL22E"/>
    <vehicle id="D_B0" type="low_priority" route="D_B" depart="66.0" departLane="random" departSpeed="10" />
    <vehicle id="E_F1" type="low_priority" route="E_F" depart="66.0" departLane="random" departSpeed="10" />
    <vehicle id="C_D2" type="low_priority" route="C_D" depart="78.0" departLane="random" departSpeed="10" />
    <vehicle id="D_B3" type="low_priority" route="D_B" depart="87.0" departLane="random" departSpeed="10" />
    <vehicle id="A_B4" type="low_priority" route="A_B" depart="89.0" departLane="random" departSpeed="10" />
    <vehicle id="B_F5" type="low_priority" route="B_F" depart="119.0" departLane="random" departSpeed="10" />
    <vehicle id="B_C6" type="low_priority" route="B_C" depart="123.0" departLane="random" departSpeed="10" />
    <vehicle id="PF_B7" type="high_priority" route="F_B" depart="123.0" departLane="random" departSpeed="10" />
    <vehicle id="D_C8" type="low_priority" route="D_C" depart="124.0" departLane="random" departSpeed="10" />
    <vehicle id="PA_E9" type="high_priority" route="A_E" depart="132.0" departLane="random" departSpeed="10" />
    <vehicle id="F_C10" type="low_priority" route="F_C" depart="142.0" departLane="random" departSpeed="10" />
    <vehicle id="D_E11" type="low_priority" route="D_E" depart="145.0" departLane="random" departSpeed="10" />
    <vehicle id="PC_E12" type="high_priority" route="C_E" depart="146.0" departLane="random" departSpeed="10" />
    <vehicle id="C_E13" type="low_priority" route="C_E" depart="170.0" departLane="random" departSpeed="10" />
    <vehicle id="E_D14" type="low_priority" route="E_D" depart="185.0" departLane="random" departSpeed="10" />
    <vehicle id="F_D15" type="low_priority" route="F_D" depart="186.0" departLane="random" departSpeed="10" />
    <vehicle id="E_B16" type="low_priority" route="E_B" depart="188.0" departLane="random" departSpeed="10" />
    <vehicle id="F_E17" type="low_priority" route="F_E" depart="189.0" departLane="random" departSpeed="10" />
    <vehicle id="D_C18" type="low_priority" route="D_C" depart="189.0" departLane="random" departSpeed="10" />
    <vehicle id="A_F19" type="low_priority" route="A_F" depart="202.0" departLane="random" departSpeed="10" />
    <vehicle id="E_B20" type="low_priority" route="E_B" depart="212.0" departLane="random" departSpeed="10" />
    <vehicle id="C_D21" type="low_priority" route="C_D" depart="212.0" departLane="random" departSpeed="10" />
    <vehicle id="E_B22" type="low_priority" route="E_B" depart="215.0" departLane="random" departSpeed="10" />
    <vehicle id="B_C23" type="low_priority" route="B_C" depart="219.0" departLane="random" departSpeed="10" />
    <vehicle id="F_B24" type="low_priority" route="F_B" depart="222.0" departLane="random" departSpeed="10" />
    <vehicle id="PE_D25" type="high_priority" route="E_D" depart="237.0" departLane="random" departSpeed="10" />
    <vehicle id="C_F26" type="low_priority" route="C_F" depart="243.0" departLane="random" departSpeed="10" />
    <vehicle id="B_E27" type="low_priority" route="B_E" depart="243.0" departLane="random" departSpeed="10" />
    <vehicle id="C_E28" type="low_priority" route="C_E" depart="247.0" departLane="random" departSpeed="10" />
    <vehicle id="A_E29" type="low_priority" route="A_E" depart="250.0" departLane="random" departSpeed="10" />
    <vehicle id="E_D30" type="low_priority" route="E_D" depart="265.0" departLane="random" departSpeed="10" />
    <vehicle id="D_E31" type="low_priority" route="D_E" depart="267.0" departLane="random" departSpeed="10" />
    <vehicle id="F_E32" type="low_priority" route="F_E" depart="270.0" departLane="random" departSpeed="10" />
    <vehicle id="A_F33" type="low_priority" route="A_F" depart="270.0" departLane="random" departSpeed="10" />
    <vehicle id="E_B34" type="low_priority" route="E_B" depart="273.0" departLane="random" departSpeed="10" />
    <vehicle id="F_E35" type="low_priority" route="F_E" depart="277.0" departLane="random" departSpeed="10" />
    <vehicle id="A_C36" type="low_priority" route="A_C" depart="279.0" departLane="random" departSpeed="10" />
    <vehicle id="E_B37" type="low_priority" route="E_B" depart="289.0" departLane="random" departSpeed="10" />
    <vehicle id="B_F38" type="low_priority" route="B_F" depart="290.0" departLane="random" departSpeed="10" />
    <vehicle id="E_A39" type="low_priority" route="E_A" depart="292.0" departLane="random" departSpeed="10" />
    <vehicle id="C_D40" type="low_priority" route="C_D" depart="294.0" departLane="random" departSpeed="10" />
    <vehicle id="A_C41" type="low_priority" route="A_C" depart="302.0" departLane="random" departSpeed="10" />
    <vehicle id="D_F42" type="low_priority" route="D_F" depart="303.0" departLane="random" departSpeed="10" />
    <vehicle id="F_B43" type="low_priority" route="F_B" depart="308.0" departLane="random" departSpeed="10" />
    <vehicle id="F_B44" type="low_priority" route="F_B" depart="310.0" departLane="random" departSpeed="10" />
    <vehicle id="C_B45" type="low_priority" route="C_B" depart="313.0" departLane="random" departSpeed="10" />
    <vehicle id="E_D46" type="low_priority" route="E_D" depart="318.0" departLane="random" departSpeed="10" />
    <vehicle id="E_C47" type="low_priority" route="E_C" depart="322.0" departLane="random" departSpeed="10" />
    <vehicle id="B_C48" type="low_priority" route="B_C" depart="322.0" departLane="random" departSpeed="10" />
    <vehicle id="B_D49" type="low_priority" route="B_D" depart="339.0" departLane="random" departSpeed="10" />
    <vehicle id="A_C50" type="low_priority" route="A_C" depart="341.0" departLane="random" departSpeed="10" />
    <vehicle id="D_B51" type="low_priority" route="D_B" depart="342.0" departLane="random" departSpeed="10" />
    <vehicle id="F_D52" type="low_priority" route="F_D" depart="344.0" departLane="random" departSpeed="10" />
    <vehicle id="C_D53" type="low_priority" route="C_D" depart="344.0" departLane="random" departSpeed="10" />
    <vehicle id="C_A54" type="low_priority" route="C_A" depart="352.0" departLane="random" departSpeed="10" />
    <vehicle id="B_A55" type="low_priority" route="B_A" depart="353.0" departLane="random" departSpeed="10" />
    <vehicle id="B_C56" type="low_priority" route="B_C" depart="355.0" departLane="random" departSpeed="10" />
    <vehicle id="F_A57" type="low_priority" route="F_A" depart="356.0" departLane="random" departSpeed="10" />
    <vehicle id="C_F58" type="low_priority" route="C_F" depart="364.0" departLane="random" departSpeed="10" />
    <vehicle id="C_D59" type="low_priority" route="C_D" depart="364.0" departLane="random" departSpeed="10" />
    <vehicle id="A_C60" type="low_priority" route="A_C" depart="367.0" departLane="random" departSpeed="10" />
    <vehicle id="A_B61" type="low_priority" route="A_B" depart="367.0" departLane="random" departSpeed="10" />
    <vehicle id="A_B62" type="low_priority" route="A_B" depart="370.0" departLane="random" departSpeed="10" />
    <vehicle id="A_D63" type="low_priority" route="A_D" depart="373.0" departLane="random" departSpeed="10" />
    <vehicle id="F_C64" type="low_priority" route="F_C" depart="374.0" departLane="random" departSpeed="10" />
    <vehicle id="F_D65" type="low_priority" route="F_D" depart="377.0" departLane="random" departSpeed="10" />
    <vehicle id="C_F66" type="low_priority" route="C_F" depart="381.0" departLane="random" departSpeed="10" />
    <vehicle id="B_C67" type="low_priority" route="B_C" depart="385.0" departLane="random" departSpeed="10" />
    <vehicle id="A_E68" type="low_priority" route="A_E" depart="387.0" departLane="random" departSpeed="10" />
    <vehicle id="B_A69" type="low_priority" route="B_A" depart="393.0" departLane="random" departSpeed="10" />
    <vehicle id="B_D70" type="low_priority" route="B_D" depart="393.0" departLane="random" departSpeed="10" />
    <vehicle id="A_D71" type="low_priority" route="A_D" depart="393.0" departLane="random" departSpeed="10" />
    <vehicle id="PE_C72" type="high_priority" route="E_C" depart="400.0" departLane="random" departSpeed="10" />
    <vehicle id="D_F73" type="low_priority" route="D_F" depart="402.0" departLane="random" departSpeed="10" />
    <vehicle id="D_B74" type="low_priority" route="D_B" depart="402.0" departLane="random" departSpeed="10" />
    <vehicle id="D_C75" type="low_priority" route="D_C" depart="404.0" departLane="random" departSpeed="10" />
    <vehicle id="D_C76" type="low_priority" route="D_C" depart="406.0" departLane="random" departSpeed="10" />
    <vehicle id="D_F77" type="low_priority" route="D_F" depart="411.0" departLane="random" departSpeed="10" />
    <vehicle id="D_A78" type="low_priority" route="D_A" depart="413.0" departLane="random" departSpeed="10" />
    <vehicle id="A_C79" type="low_priority" route="A_C" depart="417.0" departLane="random" departSpeed="10" />
    <vehicle id="A_F80" type="low_priority" route="A_F" depart="417.0" departLane="random" departSpeed="10" />
    <vehicle id="F_C81" type="low_priority" route="F_C" depart="417.0" departLane="random" departSpeed="10" />
    <vehicle id="C_E82" type="low_priority" route="C_E" depart="420.0" departLane="random" departSpeed="10" />
    <vehicle id="C_F83" type="low_priority" route="C_F" depart="420.0" departLane="random" departSpeed="10" />
    <vehicle id="D_E84" type="low_priority" route="D_E" depart="420.0" departLane="random" departSpeed="10" />
    <vehicle id="B_A85" type="low_priority" route="B_A" depart="421.0" departLane="random" departSpeed="10" />
    <vehicle id="PC_E86" type="high_priority" route="C_E" depart="422.0" departLane="random" departSpeed="10" />
    <vehicle id="F_D87" type="low_priority" route="F_D" depart="424.0" departLane="random" departSpeed="10" />
    <vehicle id="E_C88" type="low_priority" route="E_C" depart="433.0" departLane="random" departSpeed="10" />
    <vehicle id="B_F89" type="low_priority" route="B_F" depart="433.0" departLane="random" departSpeed="10" />
    <vehicle id="A_B90" type="low_priority" route="A_B" depart="436.0" departLane="random" departSpeed="10" />
    <vehicle id="D_A91" type="low_priority" route="D_A" depart="437.0" departLane="random" departSpeed="10" />
    <vehicle id="A_D92" type="low_priority" route="A_D" depart="438.0" departLane="random" departSpeed="10" />
    <vehicle id="PC_E93" type="high_priority" route="C_E" depart="444.0" departLane="random" departSpeed="10" />
    <vehicle id="A_C94" type="low_priority" route="A_C" depart="444.0" departLane="random" departSpeed="10" />
    <vehicle id="E_D95" type="low_priority" route="E_D" depart="444.0" departLane="random" departSpeed="10" />
    <vehicle id="A_E96" type="low_priority" route="A_E" depart="446.0" departLane="random" departSpeed="10" />
    <vehicle id="A_C97" type="low_priority" route="A_C" depart="449.0" departLane="random" departSpeed="10" />
    <vehicle id="B_C98" type="low_priority" route="B_C" depart="450.0" departLane="random" departSpeed="10" />
    <vehicle id="E_C99" type="low_priority" route="E_C" depart="451.0" departLane="random" departSpeed="10" />
    <vehicle id="D_C100" type="low_priority" route="D_C" depart="453.0" departLane="random" departSpeed="10" />
    <vehicle id="A_C101" type="low_priority" route="A_C" depart="455.0" departLane="random" departSpeed="10" />
    <vehicle id="C_E102" type="low_priority" route="C_E" depart="456.0" departLane="random" departSpeed="10" />
    <vehicle id="D_E103" type="low_priority" route="D_E" depart="457.0" departLane="random" departSpeed="10" />
    <vehicle id="F_D104" type="low_priority" route="F_D" depart="461.0" departLane="random" departSpeed="10" />
    <vehicle id="F_C105" type="low_priority" route="F_C" depart="461.0" departLane="random" departSpeed="10" />
    <vehicle id="E_C106" type="low_priority" route="E_C" depart="464.0" departLane="random" departSpeed="10" />
    <vehicle id="F_E107" type="low_priority" route="F_E" depart="471.0" departLane="random" departSpeed="10" />
    <vehicle id="C_E108" type="low_priority" route="C_E" depart="471.0" departLane="random" departSpeed="10" />
    <vehicle id="F_D109" type="low_priority" route="F_D" depart="472.0" departLane="random" departSpeed="10" />
    <vehicle id="B_A110" type="low_priority" route="B_A" depart="473.0" departLane="random" departSpeed="10" />
    <vehicle id="E_D111" type="low_priority" route="E_D" depart="482.0" departLane="random" departSpeed="10" />
    <vehicle id="F_E112" type="low_priority" route="F_E" depart="483.0" departLane="random" departSpeed="10" />
    <vehicle id="B_A113" type="low_priority" route="B_A" depart="485.0" departLane="random" departSpeed="10" />
    <vehicle id="F_B114" type="low_priority" route="F_B" depart="490.0" departLane="random" departSpeed="10" />
    <vehicle id="B_D115" type="low_priority" route="B_D" depart="493.0" departLane="random" departSpeed="10" />
    <vehicle id="PB_D116" type="high_priority" route="B_D" depart="494.0" departLane="random" departSpeed="10" />
    <vehicle id="C_D117" type="low_priority" route="C_D" depart="496.0" departLane="random" departSpeed="10" />
    <vehicle id="A_C118" type="low_priority" route="A_C" depart="497.0" departLane="random" departSpeed="10" />
    <vehicle id="D_A119" type="low_priority" route="D_A" depart="499.0" departLane="random" departSpeed="10" />
    <vehicle id="F_E120" type="low_priority" route="F_E" depart="501.0" departLane="random" departSpeed="10" />
    <vehicle id="D_B121" type="low_priority" route="D_B" depart="502.0" departLane="random" departSpeed="10" />
    <vehicle id="F_C122" type="low_priority" route="F_C" depart="504.0" departLane="random" departSpeed="10" />
    <vehicle id="A_C123" type="low_priority" route="A_C" depart="504.0" departLane="random" departSpeed="10" />
    <vehicle id="PA_C124" type="high_priority" route="A_C" depart="505.0" departLane="random" departSpeed="10" />
    <vehicle id="E_B125" type="low_priority" route="E_B" depart="506.0" departLane="random" departSpeed="10" />
    <vehicle id="PB_C126" type="high_priority" route="B_C" depart="507.0" departLane="random" departSpeed="10" />
    <vehicle id="F_D127" type="low_priority" route="F_D" depart="508.0" departLane="random" departSpeed="10" />
    <vehicle id="A_C128" type="low_priority" route="A_C" depart="509.0" departLane="random" departSpeed="10" />
    <vehicle id="C_D129" type="low_priority" route="C_D" depart="509.0" departLane="random" departSpeed="10" />
    <vehicle id="F_E130" type="low_priority" route="F_E" depart="513.0" departLane="random" departSpeed="10" />
    <vehicle id="E_A131" type="low_priority" route="E_A" depart="515.0" departLane="random" departSpeed="10" />
    <vehicle id="F_C132" type="low_priority" route="F_C" depart="519.0" departLane="random" departSpeed="10" />
    <vehicle id="D_C133" type="low_priority" route="D_C" depart="521.0" departLane="random" departSpeed="10" />
    <vehicle id="F_D134" type="low_priority" route="F_D" depart="523.0" departLane="random" departSpeed="10" />
    <vehicle id="B_D135" type="low_priority" route="B_D" depart="523.0" departLane="random" departSpeed="10" />
    <vehicle id="B_E136" type="low_priority" route="B_E" depart="523.0" departLane="random" departSpeed="10" />
    <vehicle id="A_B137" type="low_priority" route="A_B" depart="524.0" departLane="random" departSpeed="10" />
    <vehicle id="B_E138" type="low_priority" route="B_E" depart="527.0" departLane="random" departSpeed="10" />
    <vehicle id="B_E139" type="low_priority" route="B_E" depart="527.0" departLane="random" departSpeed="10" />
    <vehicle id="PB_C140" type="high_priority" route="B_C" depart="532.0" departLane="random" departSpeed="10" />
    <vehicle id="B_D141" type="low_priority" route="B_D" depart="536.0" departLane="random" departSpeed="10" />
    <vehicle id="A_B142" type="low_priority" route="A_B" depart="540.0" departLane="random" departSpeed="10" />
    <vehicle id="B_F143" type="low_priority" route="B_F" depart="541.0" departLane="random" departSpeed="10" />
    <vehicle id="C_B144" type="low_priority" route="C_B" depart="542.0" departLane="random" departSpeed="10" />
    <vehicle id="B_C145" type="low_priority" route="B_C" depart="544.0" departLane="random" departSpeed="10" />
    <vehicle id="A_B146" type="low_priority" route="A_B" depart="548.0" departLane="random" departSpeed="10" />
    <vehicle id="D_C147" type="low_priority" route="D_C" depart="551.0" departLane="random" departSpeed="10" />
    <vehicle id="F_B148" type="low_priority" route="F_B" depart="557.0" departLane="random" departSpeed="10" />
    <vehicle id="E_F149" type="low_priority" route="E_F" depart="559.0" departLane="random" departSpeed="10" />
    <vehicle id="A_C150" type="low_priority" route="A_C" depart="561.0" departLane="random" departSpeed="10" />
    <vehicle id="C_E151" type="low_priority" route="C_E" depart="561.0" departLane="random" departSpeed="10" />
    <vehicle id="A_D152" type="low_priority" route="A_D" depart="562.0" departLane="random" departSpeed="10" />
    <vehicle id="D_E153" type="low_priority" route="D_E" depart="562.0" departLane="random" departSpeed="10" />
    <vehicle id="A_D154" type="low_priority" route="A_D" depart="562.0" departLane="random" departSpeed="10" />
    <vehicle id="A_D155" type="low_priority" route="A_D" depart="565.0" departLane="random" departSpeed="10" />
    <vehicle id="B_E156" type="low_priority" route="B_E" depart="567.0" departLane="random" departSpeed="10" />
    <vehicle id="C_A157" type="low_priority" route="C_A" depart="568.0" departLane="random" departSpeed="10" />
    <vehicle id="C_F158" type="low_priority" route="C_F" depart="568.0" departLane="random" departSpeed="10" />
    <vehicle id="B_D159" type="low_priority" route="B_D" depart="568.0" departLane="random" departSpeed="10" />
    <vehicle id="E_A160" type="low_priority" route="E_A" depart="570.0" departLane="random" departSpeed="10" />
    <vehicle id="C_B161" type="low_priority" route="C_B" depart="571.0" departLane="random" departSpeed="10" />
    <vehicle id="A_E162" type="low_priority" route="A_E" depart="573.0" departLane="random" departSpeed="10" />
    <vehicle id="E_D163" type="low_priority" route="E_D" depart="577.0" departLane="random" departSpeed="10" />
    <vehicle id="B_E164" type="low_priority" route="B_E" depart="580.0" departLane="random" departSpeed="10" />
    <vehicle id="A_F165" type="low_priority" route="A_F" depart="584.0" departLane="random" departSpeed="10" />
    <vehicle id="A_B166" type="low_priority" route="A_B" depart="584.0" departLane="random" departSpeed="10" />
    <vehicle id="B_A167" type="low_priority" route="B_A" depart="590.0" departLane="random" departSpeed="10" />
    <vehicle id="C_F168" type="low_priority" route="C_F" depart="592.0" departLane="random" departSpeed="10" />
    <vehicle id="E_C169" type="low_priority" route="E_C" depart="593.0" departLane="random" departSpeed="10" />
    <vehicle id="B_C170" type="low_priority" route="B_C" depart="593.0" departLane="random" departSpeed="10" />
    <vehicle id="A_E171" type="low_priority" route="A_E" depart="594.0" departLane="random" departSpeed="10" />
    <vehicle id="F_B172" type="low_priority" route="F_B" depart="594.0" departLane="random" departSpeed="10" />
    <vehicle id="D_B173" type="low_priority" route="D_B" depart="596.0" departLane="random" departSpeed="10" />
    <vehicle id="A_E174" type="low_priority" route="A_E" depart="596.0" departLane="random" departSpeed="10" />
    <vehicle id="PC_A175" type="high_priority" route="C_A" depart="599.0" departLane="random" departSpeed="10" />
    <vehicle id="A_D176" type="low_priority" route="A_D" depart="599.0" departLane="random" departSpeed="10" />
    <vehicle id="F_C177" type="low_priority" route="F_C" depart="602.0" departLane="random" departSpeed="10" />
    <vehicle id="D_C178" type="low_priority" route="D_C" depart="605.0" departLane="random" departSpeed="10" />
    <vehicle id="B_F179" type="low_priority" route="B_F" depart="606.0" departLane="random" departSpeed="10" />
    <vehicle id="F_C180" type="low_priority" route="F_C" depart="608.0" departLane="random" departSpeed="10" />
    <vehicle id="A_B181" type="low_priority" route="A_B" depart="609.0" departLane="random" departSpeed="10" />
    <vehicle id="D_E182" type="low_priority" route="D_E" depart="612.0" departLane="random" departSpeed="10" />
    <vehicle id="D_E183" type="low_priority" route="D_E" depart="614.0" departLane="random" departSpeed="10" />
    <vehicle id="D_B184" type="low_priority" route="D_B" depart="614.0" departLane="random" departSpeed="10" />
    <vehicle id="B_F185" type="low_priority" route="B_F" depart="618.0" departLane="random" departSpeed="10" />
    <vehicle id="A_B186" type="low_priority" route="A_B" depart="622.0" departLane="random" departSpeed="10" />
    <vehicle id="PC_A187" type="high_priority" route="C_A" depart="623.0" departLane="random" departSpeed="10" />
    <vehicle id="B_E188" type="low_priority" route="B_E" depart="625.0" departLane="random" departSpeed="10" />
    <vehicle id="B_D189" type="low_priority" route="B_D" depart="630.0" departLane="random" departSpeed="10" />
    <vehicle id="B_E190" type="low_priority" route="B_E" depart="630.0" departLane="random" departSpeed="10" />
    <vehicle id="C_A191" type="low_priority" route="C_A" depart="631.0" departLane="random" departSpeed="10" />
    <vehicle id="E_A192" type="low_priority" route="E_A" depart="632.0" departLane="random" departSpeed="10" />
    <vehicle id="C_D193" type="low_priority" route="C_D" depart="632.0" departLane="random" departSpeed="10" />
    <vehicle id="F_D194" type="low_priority" route="F_D" depart="634.0" departLane="random" departSpeed="10" />
    <vehicle id="B_E195" type="low_priority" route="B_E" depart="635.0" departLane="random" departSpeed="10" />
    <vehicle id="C_B196" type="low_priority" route="C_B" depart="635.0" departLane="random" departSpeed="10" />
    <vehicle id="B_D197" type="low_priority" route="B_D" depart="636.0" departLane="random" departSpeed="10" />
    <vehicle id="B_D198" type="low_priority" route="B_D" depart="640.0" departLane="random" departSpeed="10" />
    <vehicle id="B_A199" type="low_priority" route="B_A" depart="643.0" departLane="random" departSpeed="10" />
    <vehicle id="PF_E200" type="high_priority" route="F_E" depart="645.0" departLane="random" departSpeed="10" />
    <vehicle id="F_A201" type="low_priority" route="F_A" depart="645.0" departLane="random" departSpeed="10" />
    <vehicle id="D_A202" type="low_priority" route="D_A" depart="645.0" departLane="random" departSpeed="10" />
    <vehicle id="E_D203" type="low_priority" route="E_D" depart="646.0" departLane="random" departSpeed="10" />
    <vehicle id="F_B204" type="low_priority" route="F_B" depart="647.0" departLane="random" departSpeed="10" />
    <vehicle id="C_A205" type="low_priority" route="C_A" depart="650.0" departLane="random" departSpeed="10" />
    <vehicle id="E_B206" type="low_priority" route="E_B" depart="653.0" departLane="random" departSpeed="10" />
    <vehicle id="PB_D207" type="high_priority" route="B_D" depart="653.0" departLane="random" departSpeed="10" />
    <vehicle id="C_F208" type="low_priority" route="C_F" depart="654.0" departLane="random" departSpeed="10" />
    <vehicle id="PE_C209" type="high_priority" route="E_C" depart="654.0" departLane="random" departSpeed="10" />
    <vehicle id="A_B210" type="low_priority" route="A_B" depart="661.0" departLane="random" departSpeed="10" />
    <vehicle id="PB_D211" type="high_priority" route="B_D" depart="663.0" departLane="random" departSpeed="10" />
    <vehicle id="D_B212" type="low_priority" route="D_B" depart="663.0" departLane="random" departSpeed="10" />
    <vehicle id="F_D213" type="low_priority" route="F_D" depart="664.0" departLane="random" departSpeed="10" />
    <vehicle id="E_F214" type="low_priority" route="E_F" depart="664.0" departLane="random" departSpeed="10" />
    <vehicle id="D_C215" type="low_priority" route="D_C" depart="669.0" departLane="random" departSpeed="10" />
    <vehicle id="A_F216" type="low_priority" route="A_F" depart="669.0" departLane="random" departSpeed="10" />
    <vehicle id="F_D217" type="low_priority" route="F_D" depart="670.0" departLane="random" departSpeed="10" />
    <vehicle id="A_B218" type="low_priority" route="A_B" depart="672.0" departLane="random" departSpeed="10" />
    <vehicle id="A_D219" type="low_priority" route="A_D" depart="672.0" departLane="random" departSpeed="10" />
    <vehicle id="F_A220" type="low_priority" route="F_A" depart="673.0" departLane="random" departSpeed="10" />
    <vehicle id="B_C221" type="low_priority" route="B_C" depart="675.0" departLane="random" departSpeed="10" />
    <vehicle id="C_A222" type="low_priority" route="C_A" depart="678.0" departLane="random" departSpeed="10" />
    <vehicle id="A_F223" type="low_priority" route="A_F" depart="679.0" departLane="random" departSpeed="10" />
    <vehicle id="E_D224" type="low_priority" route="E_D" depart="683.0" departLane="random" departSpeed="10" />
    <vehicle id="PA_E225" type="high_priority" route="A_E" depart="685.0" departLane="random" departSpeed="10" />
    <vehicle id="F_C226" type="low_priority" route="F_C" depart="685.0" departLane="random" departSpeed="10" />
    <vehicle id="B_E227" type="low_priority" route="B_E" depart="685.0" departLane="random" departSpeed="10" />
    <vehicle id="A_B228" type="low_priority" route="A_B" depart="686.0" departLane="random" departSpeed="10" />
    <vehicle id="D_C229" type="low_priority" route="D_C" depart="686.0" departLane="random" departSpeed="10" />
    <vehicle id="F_B230" type="low_priority" route="F_B" depart="690.0" departLane="random" departSpeed="10" />
    <vehicle id="F_B231" type="low_priority" route="F_B" depart="693.0" departLane="random" departSpeed="10" />
    <vehicle id="B_C232" type="low_priority" route="B_C" depart="694.0" departLane="random" departSpeed="10" />
    <vehicle id="A_B233" type="low_priority" route="A_B" depart="697.0" departLane="random" departSpeed="10" />
    <vehicle id="C_E234" type="low_priority" route="C_E" depart="698.0" departLane="random" departSpeed="10" />
    <vehicle id="F_D235" type="low_priority" route="F_D" depart="699.0" departLane="random" departSpeed="10" />
    <vehicle id="E_B236" type="low_priority" route="E_B" depart="699.0" departLane="random" departSpeed="10" />
    <vehicle id="A_E237" type="low_priority" route="A_E" depart="700.0" departLane="random" departSpeed="10" />
    <vehicle id="F_C238" type="low_priority" route="F_C" depart="701.0" departLane="random" departSpeed="10" />
    <vehicle id="D_C239" type="low_priority" route="D_C" depart="703.0" departLane="random" departSpeed="10" />
    <vehicle id="F_D240" type="low_priority" route="F_D" depart="703.0" departLane="random" departSpeed="10" />