<routes>
            <vTypeDistribution id="low_priority">
                <vType id="standard_car" vClass="passenger" guiShape="passenger" speedDev="0.2" latAlignment="arbitrary" sigma="0.5" probability="0.5" />
                <vType id="bike" vClass="motorcycle" guiShape="motorcycle" speedDev="0.2" latAlignment="arbitrary" sigma="0.5" probability="0.1"/>
                <vType id="bus" vClass="bus" guiShape="truck" speedDev="0.2" latAlignment="arbitrary" sigma="0.5" probability="0.2"/>
                <vType id="taxi" vClass="taxi" guiShape="passenger/sedan" speedDev="0.2" latAlignment="arbitrary" sigma="0.5" color = "255,0,0" probability="0.2"/>
            </vTypeDistribution>

            <vTypeDistribution id="high_priority">
                <vType id="amb" vClass="emergency" guiShape="emergency" speedDev="0.2" latAlignment="arbitrary" probability="0.4"><param key="has.bluelight.device" value="true"/></vType>
                <vType id="pol" vClass="authority" guiShape="police" speedDev="0.4" latAlignment="arbitrary" probability="0.4"><param key="has.bluelight.device" value="true"/></vType>
                <vType id="fire" vClass="emergency" guiShape="firebrigade" speedDev="0.4" latAlignment="arbitrary" probability="0.2"><param key="has.bluelight.device" value="true"/></vType>
            </vTypeDistribution>

            <route id="A_B" edges="A2TL TL2B"/>
            <route id="A_C" edges="A2TL TL2C"/>
            <route id="A_D" edges="A2TL TL2D"/>
            <route id="A_E" edges="A2TL TL2E"/>
            
            <route id="B_A" edges="B2TL TL2A"/>
            <route id="B_C" edges="B2TL TL2C"/>
            <route id="B_D" edges="B2TL TL2D"/>
            <route id="B_E" edges="B2TL TL2E"/>

            <route id="C_A" edges="C2TL TL2A"/>
            <route id="C_B" edges="C2TL TL2B"/>
            <route id="C_D" edges="C2TL TL2D"/>
            <route id="C_E" edges="C2TL TL2E"/>
            
            <route id="D_A" edges="D2TL TL2A"/>
            <route id="D_B" edges="D2TL TL2B"/>
            <route id="D_C" edges="D2TL TL2C"/>
            <route id="D_E" edges="D2TL TL2E"/>

            <route id="E_A" edges="E2TL TL2A"/>
            <route id="E_B" edges="E2TL TL2B"/>
            <route id="E_C" edges="E2TL TL2C"/>
            <route id="E_D" edges="E2TL TL2D"/>
    <vehicle id="C_B0" type="low_priority" route="C_B" depart="66.0" departLane="random" departSpeed="10" />
    <vehicle id="D_A1" type="low_priority" route="D_A" depart="78.0" departLane="random" departSpeed="10" />
    <vehicle id="D_B2" type="low_priority" route="D_B" depart="123.0" departLane="random" departSpeed="10" />
    <vehicle id="E_B3" type="low_priority" route="E_B" depart="124.0" departLane="random" departSpeed="10" />
    <vehicle id="D_A4" type="low_priority" route="D_A" depart="132.0" departLane="random" departSpeed="10" />
    <vehicle id="B_D5" type="low_priority" route="B_D" depart="142.0" departLane="random" departSpeed="10" />
    <vehicle id="D_A6" type="low_priority" route="D_A" depart="145.0" departLane="random" departSpeed="10" />
    <vehicle id="A_E7" type="low_priority" route="A_E" depart="146.0" departLane="random" departSpeed="10" />
    <vehicle id="D_B8" type="low_priority" route="D_B" depart="185.0" departLane="random" departSpeed="10" />
    <vehicle id="E_D9" type="low_priority" route="E_D" depart="186.0" departLane="random" departSpeed="10" />
    <vehicle id="PD_A10" type="high_priority" route="D_A" depart="188.0" departLane="random" departSpeed="10" />
    <vehicle id="A_C11" type="low_priority" route="A_C" depart="189.0" departLane="random" departSpeed="10" />
    <vehicle id="A_D12" type="low_priority" route="A_D" depart="189.0" departLane="random" departSpeed="10" />
    <vehicle id="E_C13" type="low_priority" route="E_C" depart="202.0" departLane="random" departSpeed="10" />
    <vehicle id="B_A14" type="low_priority" route="B_A" depart="212.0" departLane="random" departSpeed="10" />
    <vehicle id="C_A15" type="low_priority" route="C_A" depart="212.0" departLane="random" departSpeed="10" />
    <vehicle id="B_D16" type="low_priority" route="B_D" depart="222.0" departLane="random" departSpeed="10" />
    <vehicle id="A_E17" type="low_priority" route="A_E" depart="243.0" departLane="random" departSpeed="10" />
    <vehicle id="D_B18" type="low_priority" route="D_B" depart="243.0" departLane="random" departSpeed="10" />
    <vehicle id="D_E19" type="low_priority" route="D_E" depart="247.0" departLane="random" departSpeed="10" />
    <vehicle id="E_C20" type="low_priority" route="E_C" depart="250.0" departLane="random" departSpeed="10" />
    <vehicle id="B_E21" type="low_priority" route="B_E" depart="267.0" departLane="random" departSpeed="10" />
    <vehicle id="E_A22" type="low_priority" route="E_A" depart="273.0" departLane="random" departSpeed="10" />
    <vehicle id="C_B23" type="low_priority" route="C_B" depart="277.0" departLane="random" departSpeed="10" />
    <vehicle id="B_E24" type="low_priority" route="B_E" depart="289.0" departLane="random" departSpeed="10" />
    <vehicle id="E_C25" type="low_priority" route="E_C" depart="290.0" departLane="random" departSpeed="10" />
    <vehicle id="C_A26" type="low_priority" route="C_A" depart="292.0" departLane="random" departSpeed="10" />
    <vehicle id="B_C27" type="low_priority" route="B_C" depart="294.0" departLane="random" departSpeed="10" />
    <vehicle id="A_B28" type="low_priority" route="A_B" depart="303.0" departLane="random" departSpeed="10" />
    <vehicle id="E_D29" type="low_priority" route="E_D" depart="308.0" departLane="random" departSpeed="10" />
    <vehicle id="E_D30" type="low_priority" route="E_D" depart="313.0" departLane="random" departSpeed="10" />
    <vehicle id="E_D31" type="low_priority" route="E_D" depart="318.0" departLane="random" departSpeed="10" />
    <vehicle id="B_C32" type="low_priority" route="B_C" depart="322.0" departLane="random" departSpeed="10" />
    <vehicle id="D_C33" type="low_priority" route="D_C" depart="322.0" departLane="random" departSpeed="10" />
    <vehicle id="B_A34" type="low_priority" route="B_A" depart="339.0" departLane="random" departSpeed="10" />
    <vehicle id="B_C35" type="low_priority" route="B_C" depart="342.0" departLane="random" departSpeed="10" />
    <vehicle id="D_A36" type="low_priority" route="D_A" depart="344.0" departLane="random" departSpeed="10" />
    <vehicle id="E_A37" type="low_priority" route="E_A" depart="344.0" departLane="random" departSpeed="10" />
    <vehicle id="E_B38" type="low_priority" route="E_B" depart="352.0" departLane="random" departSpeed="10" />
    <vehicle id="A_E39" type="low_priority" route="A_E" depart="353.0" departLane="random" departSpeed="10" />
    <vehicle id="A_C40" type="low_priority" route="A_C" depart="356.0" departLane="random" departSpeed="10" />
    <vehicle id="C_A41" type="low_priority" route="C_A" depart="364.0" departLane="random" departSpeed="10" />
    <vehicle id="A_C42" type="low_priority" route="A_C" depart="364.0" departLane="random" departSpeed="10" />
    <vehicle id="D_A43" type="low_priority" route="D_A" depart="367.0" departLane="random" departSpeed="10" />
    <vehicle id="C_D44" type="low_priority" route="C_D" depart="370.0" departLane="random" departSpeed="10" />
    <vehicle id="A_D45" type="low_priority" route="A_D" depart="373.0" departLane="random" departSpeed="10" />
    <vehicle id="D_C46" type="low_priority" route="D_C" depart="381.0" departLane="random" departSpeed="10" />
    <vehicle id="B_C47" type="low_priority" route="B_C" depart="385.0" departLane="random" departSpeed="10" />
    <vehicle id="C_E48" type="low_priority" route="C_E" depart="387.0" departLane="random" departSpeed="10" />
    <vehicle id="E_A49" type="low_priority" route="E_A" depart="393.0" departLane="random" departSpeed="10" />
    <vehicle id="E_C50" type="low_priority" route="E_C" depart="400.0" departLane="random" departSpeed="10" />
    <vehicle id="B_E51" type="low_priority" route="B_E" depart="402.0" departLane="random" departSpeed="10" />
    <vehicle id="C_E52" type="low_priority" route="C_E" depart="402.0" departLane="random" departSpeed="10" />
    <vehicle id="D_A53" type="low_priority" route="D_A" depart="404.0" departLane="random" departSpeed="10" />
    <vehicle id="A_E54" type="low_priority" route="A_E" depart="406.0" departLane="random" departSpeed="10" />
    <vehicle id="A_C55" type="low_priority" route="A_C" depart="411.0" departLane="random" departSpeed="10" />
    <vehicle id="D_A56" type="low_priority" route="D_A" depart="413.0" departLane="random" departSpeed="10" />
    <vehicle id="C_B57" type="low_priority" route="C_B" depart="417.0" departLane="random" departSpeed="10" />
    <vehicle id="A_B58" type="low_priority" route="A_B" depart="420.0" departLane="random" departSpeed="10" />
    <vehicle id="E_D59" type="low_priority" route="E_D" depart="420.0" departLane="random" departSpeed="10" />
    <vehicle id="D_C60" type="low_priority" route="D_C" depart="420.0" departLane="random" departSpeed="10" />
    <vehicle id="D_B61" type="low_priority" route="D_B" depart="424.0" departLane="random" departSpeed="10" />
    <vehicle id="C_A62" type="low_priority" route="C_A" depart="433.0" departLane="random" departSpeed="10" />
    <vehicle id="C_E63" type="low_priority" route="C_E" depart="433.0" departLane="random" departSpeed="10" />
    <vehicle id="C_B64" type="low_priority" route="C_B" depart="437.0" departLane="random" departSpeed="10" />
    <vehicle id="D_B65" type="low_priority" route="D_B" depart="444.0" departLane="random" departSpeed="10" />
    <vehicle id="A_B66" type="low_priority" route="A_B" depart="444.0" departLane="random" departSpeed="10" />
    <vehicle id="D_C67" type="low_priority" route="D_C" depart="446.0" departLane="random" departSpeed="10" />
    <vehicle id="A_C68" type="low_priority" route="A_C" depart="449.0" departLane="random" departSpeed="10" />
    <vehicle id="E_C69" type="low_priority" route="E_C" depart="456.0" departLane="random" departSpeed="10" />
    <vehicle id="A_C70" type="low_priority" route="A_C" depart="457.0" departLane="random" departSpeed="10" />
    <vehicle id="D_A71" type="low_priority" route="D_A" depart="461.0" departLane="random" departSpeed="10" />
    <vehicle id="A_B72" type="low_priority" route="A_B" depart="461.0" departLane="random" departSpeed="10" />
    <vehicle id="C_E73" type="low_priority" route="C_E" depart="464.0" departLane="random" departSpeed="10" />
    <vehicle id="E_A74" type="low_priority" route="E_A" depart="471.0" departLane="random" departSpeed="10" />
    <vehicle id="B_D75" type="low_priority" route="B_D" depart="471.0" departLane="random" departSpeed="10" />
    <vehicle id="E_C76" type="low_priority" route="E_C" depart="472.0" departLane="random" departSpeed="10" />
    <vehicle id="PC_E77" type="high_priority" route="C_E" depart="473.0" departLane="random" departSpeed="10" />
    <vehicle id="B_D78" type="low_priority" route="B_D" depart="483.0" departLane="random" departSpeed="10" />
    <vehicle id="E_A79" type="low_priority" route="E_A" depart="485.0" departLane="random" departSpeed="10" />
    <vehicle id="E_B80" type="low_priority" route="E_B" depart="490.0" departLane="random" departSpeed="10" />
    <vehicle id="E_D81" type="low_priority" route="E_D" depart="496.0" departLane="random" departSpeed="10" />
    <vehicle id="B_D82" type="low_priority" route="B_D" depart="499.0" departLane="random" departSpeed="10" />
    <vehicle id="PD_E83" type="high_priority" route="D_E" depart="502.0" departLane="random" departSpeed="10" />
    <vehicle id="D_B84" type="low_priority" route="D_B" depart="504.0" departLane="random" departSpeed="10" />
    <vehicle id="B_C85" type="low_priority" route="B_C" depart="504.0" departLane="random" departSpeed="10" />
    <vehicle id="B_A86" type="low_priority" route="B_A" depart="505.0" departLane="random" departSpeed="10" />
    <vehicle id="C_E87" type="low_priority" route="C_E" depart="506.0" departLane="random" departSpeed="10" />
    <vehicle id="C_A88" type="low_priority" route="C_A" depart="507.0" departLane="random" departSpeed="10" />
    <vehicle id="E_C89" type="low_priority" route="E_C" depart="508.0" departLane="random" departSpeed="10" />
    <vehicle id="A_E90" type="low_priority" route="A_E" depart="509.0" departLane="random" departSpeed="10" />
    <vehicle id="D_C91" type="low_priority" route="D_C" depart="515.0" departLane="random" departSpeed="10" />
    <vehicle id="D_C92" type="low_priority" route="D_C" depart="521.0" departLane="random" departSpeed="10" />
    <vehicle id="PC_D93" type="high_priority" route="C_D" depart="523.0" departLane="random" departSpeed="10" />
    <vehicle id="B_A94" type="low_priority" route="B_A" depart="523.0" departLane="random" departSpeed="10" />
    <vehicle id="C_A95" type="low_priority" route="C_A" depart="523.0" departLane="random" departSpeed="10" />
    <vehicle id="D_A96" type="low_priority" route="D_A" depart="527.0" departLane="random" departSpeed="10" />
    <vehicle id="E_D97" type="low_priority" route="E_D" depart="527.0" departLane="random" departSpeed="10" />
    <vehicle id="C_A98" type="low_priority" route="C_A" depart="532.0" departLane="random" departSpeed="10" />
    <vehicle id="C_E99" type="low_priority" route="C_E" depart="536.0" departLane="random" departSpeed="10" />
    <vehicle id="C_A100" type="low_priority" route="C_A" depart="540.0" departLane="random" departSpeed="10" />
    <vehicle id="C_B101" type="low_priority" route="C_B" depart="541.0" departLane="random" departSpeed="10" />
    <vehicle id="C_A102" type="low_priority" route="C_A" depart="544.0" departLane="random" departSpeed="10" />
    <vehicle id="B_C103" type="low_priority" route="B_C" depart="548.0" departLane="random" departSpeed="10" />
    <vehicle id="B_A104" type="low_priority" route="B_A" depart="551.0" departLane="random" departSpeed="10" />
    <vehicle id="B_A105" type="low_priority" route="B_A" depart="559.0" departLane="random" departSpeed="10" />
    <vehicle id="E_A106" type="low_priority" route="E_A" depart="561.0" departLane="random" departSpeed="10" />
    <vehicle id="B_D107" type="low_priority" route="B_D" depart="561.0" departLane="random" departSpeed="10" />
    <vehicle id="A_C108" type="low_priority" route="A_C" depart="562.0" departLane="random" departSpeed="10" />
    <vehicle id="E_B109" type="low_priority" route="E_B" depart="562.0" departLane="random" departSpeed="10" />
    <vehicle id="E_B110" type="low_priority" route="E_B" depart="565.0" departLane="random" departSpeed="10" />
    <vehicle id="D_C111" type="low_priority" route="D_C" depart="567.0" departLane="random" departSpeed="10" />
    <vehicle id="E_B112" type="low_priority" route="E_B" depart="568.0" departLane="random" departSpeed="10" />
    <vehicle id="B_D113" type="low_priority" route="B_D" depart="570.0" departLane="random" departSpeed="10" />
    <vehicle id="B_C114" type="low_priority" route="B_C" depart="571.0" departLane="random" departSpeed="10" />
    <vehicle id="C_D115" type="low_priority" route="C_D" depart="577.0" departLane="random" departSpeed="10" />
    <vehicle id="D_E116" type="low_priority" route="D_E" depart="584.0" departLane="random" departSpeed="10" />
    <vehicle id="D_A117" type="low_priority" route="D_A" depart="584.0" departLane="random" departSpeed="10" />
    <vehicle id="C_E118" type="low_priority" route="C_E" depart="590.0" departLane="random" departSpeed="10" />
    <vehicle id="E_A119" type="low_priority" route="E_A" depart="592.0" departLane="random" departSpeed="10" />
    <vehicle id="E_D120" type="low_priority" route="E_D" depart="593.0" departLane="random" departSpeed="10" />
    <vehicle id="A_E121" type="low_priority" route="A_E" depart="593.0" departLane="random" departSpeed="10" />
    <vehicle id="B_D122" type="low_priority" route="B_D" depart="594.0" departLane="random" departSpeed="10" />
    <vehicle id="B_D123" type="low_priority" route="B_D" depart="594.0" departLane="random" departSpeed="10" />
    <vehicle id="E_B124" type="low_priority" route="E_B" depart="596.0" departLane="random" departSpeed="10" />
    <vehicle id="B_D125" type="low_priority" route="B_D" depart="596.0" departLane="random" departSpeed="10" />
    <vehicle id="E_C126" type="low_priority" route="E_C" depart="599.0" departLane="random" departSpeed="10" />
    <vehicle id="B_C127" type="low_priority" route="B_C" depart="599.0" departLane="random" departSpeed="10" />
    <vehicle id="B_D128" type="low_priority" route="B_D" depart="606.0" departLane="random" departSpeed="10" />
    <vehicle id="A_D129" type="low_priority" route="A_D" depart="608.0" departLane="random" departSpeed="10" />
    <vehicle id="A_C130" type="low_priority" route="A_C" depart="609.0" departLane="random" departSpeed="10" />
    <vehicle id="D_B131" type="low_priority" route="D_B" depart="612.0" departLane="random" departSpeed="10" />
    <vehicle id="E_B132" type="low_priority" route="E_B" depart="614.0" departLane="random" departSpeed="10" />
    <vehicle id="A_C133" type="low_priority" route="A_C" depart="614.0" departLane="random" departSpeed="10" />
    <vehicle id="E_D134" type="low_priority" route="E_D" depart="618.0" departLane="random" departSpeed="10" />
    <vehicle id="E_D135" type="low_priority" route="E_D" depart="623.0" departLane="random" departSpeed="10" />
    <vehicle id="C_A136" type="low_priority" route="C_A" depart="625.0" departLane="random" departSpeed="10" />
    <vehicle id="E_D137" type="low_priority" route="E_D" depart="630.0" departLane="random" departSpeed="10" />
    <vehicle id="D_A138" type="low_priority" route="D_A" depart="632.0" departLane="random" departSpeed="10" />
    <vehicle id="E_A139" type="low_priority" route="E_A" depart="634.0" departLane="random" departSpeed="10" />
    <vehicle id="D_C140" type="low_priority" route="D_C" depart="635.0" departLane="random" departSpeed="10" />
    <vehicle id="B_E141" type="low_priority" route="B_E" depart="636.0" departLane="random" departSpeed="10" />
    <vehicle id="B_D142" type="low_priority" route="B_D" depart="640.0" departLane="random" departSpeed="10" />
    <vehicle id="D_C143" type="low_priority" route="D_C" depart="643.0" departLane="random" departSpeed="10" />
    <vehicle id="A_B144" type="low_priority" route="A_B" depart="645.0" departLane="random" departSpeed="10" />
    <vehicle id="C_E145" type="low_priority" route="C_E" depart="645.0" departLane="random" departSpeed="10" />
    <vehicle id="B_C146" type="low_priority" route="B_C" depart="646.0" departLane="random" departSpeed="10" />
    <vehicle id="D_B147" type="low_priority" route="D_B" depart="653.0" departLane="random" departSpeed="10" />
    <vehicle id="E_C148" type="low_priority" route="E_C" depart="654.0" departLane="random" departSpeed="10" />
    <vehicle id="A_E149" type="low_priority" route="A_E" depart="654.0" departLane="random" departSpeed="10" />
    <vehicle id="B_D150" type="low_priority" route="B_D" depart="663.0" departLane="random" departSpeed="10" />
    <vehicle id="A_B151" type="low_priority" route="A_B" depart="663.0" departLane="random" departSpeed="10" />
    <vehicle id="B_D152" type="low_priority" route="B_D" depart="664.0" departLane="random" departSpeed="10" />
    <vehicle id="E_A153" type="low_priority" route="E_A" depart="664.0" departLane="random" departSpeed="10" />
    <vehicle id="E_A154" type="low_priority" route="E_A" depart="669.0" departLane="random" departSpeed="10" />
    <vehicle id="B_C155" type="low_priority" route="B_C" depart="670.0" departLane="random" departSpeed="10" />
    <vehicle id="PD_C156" type="high_priority" route="D_C" depart="673.0" departLane="random" departSpeed="10" />
    <vehicle id="E_B157" type="low_priority" route="E_B" depart="683.0" departLane="random" departSpeed="10" />
    <vehicle id="B_C158" type="low_priority" route="B_C" depart="685.0" departLane="random" departSpeed="10" />
    <vehicle id="C_B159" type="low_priority" route="C_B" depart="685.0" departLane="random" departSpeed="10" />
    <vehicle id="B_C160" type="low_priority" route="B_C" depart="686.0" departLane="random" departSpeed="10" />
    <vehicle id="B_C161" type="low_priority" route="B_C" depart="686.0" departLane="random" departSpeed="10" />
    <vehicle id="E_A162" type="low_priority" route="E_A" depart="690.0" departLane="random" departSpeed="10" />
    <vehicle id="D_A163" type="low_priority" route="D_A" depart="693.0" departLane="random" departSpeed="10" />
    <vehicle id="A_C164" type="low_priority" route="A_C" depart="694.0" departLane="random" departSpeed="10" />
    <vehicle id="A_C165" type="low_priority" route="A_C" depart="697.0" departLane="random" departSpeed="10" />
    <vehicle id="A_B166" type="low_priority" route="A_B" depart="698.0" departLane="random" departSpeed="10" />
    <vehicle id="B_A167" type="low_priority" route="B_A" depart="699.0" departLane="random" departSpeed="10" />
    <vehicle id="B_A168" type="low_priority" route="B_A" depart="700.0" departLane="random" departSpeed="10" />
    <vehicle id="E_D169" type="low_priority" route="E_D" depart="703.0" departLane="random" departSpeed="10" />
    <vehicle id="B_E170" type="low_priority" route="B_E" depart="704.0" departLane="random" departSpeed="10" />
    <vehicle id="D_A171" type="low_priority" route="D_A" depart="715.0" departLane="random" departSpeed="10" />
    <vehicle id="C_E172" type="low_priority" route="C_E" depart="718.0" departLane="random" departSpeed="10" />
    <vehicle id="B_A173" type="low_priority" route="B_A" depart="722.0" departLane="random" departSpeed="10" />
    <vehicle id="E_B174" type="low_priority" route="E_B" depart="723.0" departLane="random" departSpeed="10" />
    <vehicle id="B_D175" type="low_priority" route="B_D" depart="723.0" departLane="random" departSpeed="10" />
    <vehicle id="A_E176" type="low_priority" route="A_E" depart="723.0" departLane="random" departSpeed="10" />
    <vehicle id="D_B177" type="low_priority" route="D_B" depart="726.0" departLane="random" departSpeed="10" />
    <vehicle id="E_D178" type="low_priority" route="E_D" depart="728.0" departLane="random" departSpeed="10" />
    <vehicle id="D_E179" type="low_priority" route="D_E" depart="731.0" departLane="random" departSpeed="10" />
    <vehicle id="D_A180" type="low_priority" route="D_A" depart="733.0" departLane="random" departSpeed="10" />
    <vehicle id="E_A181" type="low_priority" route="E_A" depart="734.0" departLane="random" departSpeed="10" />
    <vehicle id="A_B182" type="low_priority" route="A_B" depart="735.0" departLane="random" departSpeed="10" />
    <vehicle id="C_B183" type="low_priority" route="C_B" depart="741.0" departLane="random" departSpeed="10" />
    <vehicle id="B_D184" type="low_priority" route="B_D" depart="744.0" departLane="random" departSpeed="10" />
    <vehicle id="PD_A185" type="high_priority" route="D_A" depart="747.0" departLane="random" departSpeed="10" />
    <vehicle id="C_D186" type="low_priority" route="C_D" depart="751.0" departLane="random" departSpeed="10" />
    <vehicle id="C_E187" type="low_priority" route="C_E" depart="751.0" departLane="random" departSpeed="10" />
    <vehicle id="B_D188" type="low_priority" route="B_D" depart="754.0" departLane="random" departSpeed="10" />
    <vehicle id="B_D189" type="low_priority" route="B_D" depart="755.0" departLane="random" departSpeed="10" />
    <vehicle id="E_D190" type="low_priority" route="E_D" depart="755.0" departLane="random" departSpeed="10" />
    <vehicle id="D_A191" type="low_priority" route="D_A" depart="761.0" departLane="random" departSpeed="10" />
    <vehicle id="PC_A192" type="high_priority" route="C_A" depart="761.0" departLane="random" departSpeed="10" />
    <vehicle id="PA_C193" type="high_priority" route="A_C" depart="762.0" departLane="random" departSpeed="10" />
    <vehicle id="C_D194" type="low_priority" route="C_D" depart="763.0" departLane="random" departSpeed="10" />
    <vehicle id="A_E195" type="low_priority" route="A_E" depart="767.0" departLane="random" departSpeed="10" />
    <vehicle id="B_D196" type="low_priority" route="B_D" depart="772.0" departLane="random" departSpeed="10" />
    <vehicle id="D_A197" type="low_priority" route="D_A" depart="782.0" departLane="random" departSpeed="10" />
    <vehicle id="D_C198" type="low_priority" route="D_C" depart="782.0" departLane="random" departSpeed="10" />
    <vehicle id="E_D199" type="low_priority" route="E_D" depart="787.0" departLane="random" departSpeed="10" />
    <vehicle id="E_A200" type="low_priority" route="E_A" depart="788.0" departLane="random" departSpeed="10" />
    <vehicle id="D_C201" type="low_priority" route="D_C" depart="789.0" departLane="random" departSpeed="10" />
    <vehicle id="C_A202" type="low_priority" route="C_A" depart="789.0" departLane="random" departSpeed="10" />
    <vehicle id="D_B203" type="low_priority" route="D_B" depart="798.0" departLane="random" departSpeed="10" />
    <vehicle id="A_E204" type="low_priority" route="A_E" depart="800.0" departLane="random" departSpeed="10" />
    <vehicle id="A_E205" type="low_priority" route="A_E" depart="802.0" departLane="random" departSpeed="10" />
    <vehicle id="C_E206" type="low_priority" route="C_E" depart="803.0" departLane="random" departSpeed="10" />
    <vehicle id="D_C207" type="low_priority" route="D_C" depart="803.0" departLane="random" departSpeed="10" />
    <vehicle id="C_E208" type="low_priority" route="C_E" depart="810.0" departLane="random" departSpeed="10" />
    <vehicle id="B_D209" type="low_priority" route="B_D" depart="814.0" departLane="random" departSpeed="10" />
    <vehicle id="B_D210" type="low_priority" route="B_D" depart="815.0" departLane="random" departSpeed="10" />
    <vehicle id="D_E211" type="low_priority" route="D_E" depart="815.0" departLane="random" departSpeed="10" />
    <vehicle id="PA_E212" type="high_priority" route="A_E" depart="818.0" departLane="random" departSpeed="10" />
    <vehicle id="D_A213" type="low_priority" route="D_A" depart="821.0" departLane="random" departSpeed="10" />
    <vehicle id="A_C214" type="low_priority" route="A_C" depart="822.0" departLane="random" departSpeed="10" />
    <vehicle id="E_D215" type="low_priority" route="E_D" depart="827.0" departLane="random" departSpeed="10" />
    <vehicle id="B_C216" type="low_priority" route="B_C" depart="830.0" departLane="random" departSpeed="10" />
    <vehicle id="B_D217" type="low_priority" route="B_D" depart="830.0" departLane="random" departSpeed="10" />
    <vehicle id="A_C218" type="low_priority" route="A_C" depart="833.0" departLane="random" departSpeed="10" />
    <vehicle id="E_C219" type="low_priority" route="E_C" depart="833.0" departLane="random" departSpeed="10" />
    <vehicle id="A_C220" type="low_priority" route="A_C" depart="836.0" departLane="random" departSpeed="10" />
    <vehicle id="C_E221" type="low_priority" route="C_E" depart="836.0" departLane="random" departSpeed="10" />
    <vehicle id="D_B222" type="low_priority" route="D_B" depart="836.0" departLane="random" departSpeed="10" />
    <vehicle id="B_A223" type="low_priority" route="B_A" depart="838.0" departLane="random" departSpeed="10" />
    <vehicle id="D_A224" type="low_priority" route="D_A" depart="840.0" departLane="random" departSpeed="10" />
    <vehicle id="C_D225" type="low_priority" route="C_D" depart="843.0" departLane="random" departSpeed="10" />
    <vehicle id="B_C226" type="low_priority" route="B_C" depart="844.0" departLane="random" departSpeed="10" />
    <vehicle id="B_D227" type="low_priority" route="B_D" depart="845.0" departLane="random" departSpeed="10" />
    <vehicle id="C_B228" type="low_priority" route="C_B" depart="846.0" departLane="random" departSpeed="10" />
    <vehicle id="D_C229" type="low_priority" route="D_C" depart="846.0" departLane="random" departSpeed="10" />
    <vehicle id="D_A230" type="low_priority" route="D_A" depart="857.0" departLane="random" departSpeed="10" />
    <vehicle id="A_C231" type="low_priority" route="A_C" depart="858.0" departLane="random" departSpeed="10" />
    <vehicle id="A_B232" type="low_priority" route="A_B" depart="865.0" departLane="random" departSpeed="10" />
    <vehicle id="A_B233" type="low_priority" route="A_B" depart="867.0" departLane="random" departSpeed="10" />
    <vehicle id="A_D234" type="low_priority" route="A_D" depart="868.0" departLane="random" departSpeed="10" />
    <vehicle id="D_A235" type="low_priority" route="D_A" depart="871.0" departLane="random" departSpeed="10" />
    <vehicle id="B_D236" type="low_priority" route="B_D" depart="875.0" departLane="random" departSpeed="10" />
    <vehicle id="E_A237" type="low_priority" route="E_A" depart="878.0" departLane="random" departSpeed="10" />
    <vehicle id="D_E238" type="low_priority" route="D_E" depart="879.0" departLane="random" departSpeed="10" />
    <vehicle id="D_B239" type="low_priority" route="D_B" depart="881.0" departLane="random" departSpeed="10" />
    <vehicle id="E_D240" type="low_priority" route="E_D" depart="885.0" departLane="random" departSpeed="10" />
    <vehicle id="B_D241" type="low_priority" route="B_D" depart="887.0" departLane="random" departSpeed="10" />
    <vehicle id="B_E242" type="low_priority" route="B_E" depart="890.0" departLane="random" departSpeed="10" />
    <vehicle id="E_D243" type="low_priority" route="E_D" depart="890.0" departLane="random" departSpeed="10" />
    <vehicle id="B_A244" type="low_priority" route="B_A" depart="894.0" departLane="random" departSpeed="10" />
    <vehicle id="A_E245" type="low_priority" route="A_E" depart="897.0" departLane="random" departSpeed="10" />
    <vehicle id="E_A246" type="low_priority" route="E_A" depart="898.0" departLane="random" departSpeed="10" />