<routes>
            <vTypeDistribution id="low_priority">
                <vType id="standard_car" vClass="passenger" guiShape="passenger" speedDev="0.2" latAlignment="arbitrary" sigma="0.5" probability="0.5" />
                <vType id="bike" vClass="motorcycle" guiShape="motorcycle" speedDev="0.2" latAlignment="arbitrary" sigma="0.5" probability="0.1"/>
                <vType id="bus" vClass="bus" guiShape="truck" speedDev="0.2" latAlignment="arbitrary" sigma="0.5" probability="0.2"/>
                <vType id="taxi" vClass="taxi" guiShape="passenger/sedan" speedDev="0.2" latAlignment="arbitrary" sigma="0.5" color = "255,0,0" probability="0.2"/>
            </vTypeDistribution>

            <vTypeDistribution id="high_priority">
                <vType id="amb" vClass="emergency" guiShape="emergency" speedDev="0.2" latAlignment="arbitrary" probability="0.4"><param key="has.bluelight.device" value="true"/></vType>
                <vType id="pol" vClass="authority" guiShape="police" speedDev="0.4" latAlignment="arbitrary" probability="0.4"><param key="has.bluelight.device" value="true"/></vType>
                <vType id="fire" vClass="emergency" guiShape="firebrigade" speedDev="0.4" latAlignment="arbitrary" probability="0.2"><param key="has.bluelight.device" value="true"/></vType>
            </vTypeDistribution>

            <route id="A_B" edges="A2TL TL2B"/>
            <route id="A_C" edges="A2TL TL2C"/>
            <route id="B_A" edges="B2TL TL2A"/>
            <route id="B_C" edges="B2TL TL2C"/>
            <route id="C_A" edges="C2TL TL2A"/>
            <route id="C_B" edges="C2TL TL2B"/>
    <vehicle id="B_C0" type="low_priority" route="B_C" depart="66.0" departLane="random" departSpeed="10" />
    <vehicle id="B_C1" type="low_priority" route="B_C" depart="78.0" departLane="random" departSpeed="10" />
    <vehicle id="C_B2" type="low_priority" route="C_B" depart="123.0" departLane="random" departSpeed="10" />
    <vehicle id="A_B3" type="low_priority" route="A_B" depart="124.0" departLane="random" departSpeed="10" />
    <vehicle id="B_A4" type="low_priority" route="B_A" depart="132.0" departLane="random" departSpeed="10" />
    <vehicle id="B_C5" type="low_priority" route="B_C" depart="142.0" departLane="random" departSpeed="10" />
    <vehicle id="B_C6" type="low_priority" route="B_C" depart="145.0" departLane="random" departSpeed="10" />
    <vehicle id="A_C7" type="low_priority" route="A_C" depart="146.0" departLane="random" departSpeed="10" />
    <vehicle id="A_B8" type="low_priority" route="A_B" depart="185.0" departLane="random" departSpeed="10" />
    <vehicle id="C_B9" type="low_priority" route="C_B" depart="186.0" departLane="random" departSpeed="10" />
    <vehicle id="B_C10" type="low_priority" route="B_C" depart="188.0" departLane="random" departSpeed="10" />
    <vehicle id="PC_A11" type="high_priority" route="C_A" depart="189.0" departLane="random" departSpeed="10" />
    <vehicle id="A_B12" type="low_priority" route="A_B" depart="189.0" departLane="random" departSpeed="10" />
    <vehicle id="A_C13" type="low_priority" route="A_C" depart="202.0" departLane="random" departSpeed="10" />
    <vehicle id="A_C14" type="low_priority" route="A_C" depart="212.0" departLane="random" departSpeed="10" />
    <vehicle id="A_B15" type="low_priority" route="A_B" depart="212.0" departLane="random" departSpeed="10" />
    <vehicle id="A_B16" type="low_priority" route="A_B" depart="222.0" departLane="random" departSpeed="10" />
    <vehicle id="A_C17" type="low_priority" route="A_C" depart="243.0" departLane="random" departSpeed="10" />
    <vehicle id="B_C18" type="low_priority" route="B_C" depart="243.0" departLane="random" departSpeed="10" />
    <vehicle id="A_C19" type="low_priority" route="A_C" depart="247.0" departLane="random" departSpeed="10" />
    <vehicle id="A_B20" type="low_priority" route="A_B" depart="250.0" departLane="random" departSpeed="10" />
    <vehicle id="A_B21" type="low_priority" route="A_B" depart="267.0" departLane="random" departSpeed="10" />
    <vehicle id="C_B22" type="low_priority" route="C_B" depart="273.0" departLane="random" departSpeed="10" />
    <vehicle id="C_B23" type="low_priority" route="C_B" depart="277.0" departLane="random" departSpeed="10" />
    <vehicle id="A_B24" type="low_priority" route="A_B" depart="289.0" departLane="random" departSpeed="10" />
    <vehicle id="B_C25" type="low_priority" route="B_C" depart="290.0" departLane="random" departSpeed="10" />
    <vehicle id="B_C26" type="low_priority" route="B_C" depart="292.0" departLane="random" departSpeed="10" />
    <vehicle id="B_C27" type="low_priority" route="B_C" depart="294.0" departLane="random" departSpeed="10" />
    <vehicle id="B_C28" type="low_priority" route="B_C" depart="303.0" departLane="random" departSpeed="10" />
    <vehicle id="C_B29" type="low_priority" route="C_B" depart="308.0" departLane="random" departSpeed="10" />
    <vehicle id="A_C30" type="low_priority" route="A_C" depart="313.0" departLane="random" departSpeed="10" />
    <vehicle id="B_A31" type="low_priority" route="B_A" depart="318.0" departLane="random" departSpeed="10" />
    <vehicle id="B_C32" type="low_priority" route="B_C" depart="322.0" departLane="random" departSpeed="10" />
    <vehicle id="C_B33" type="low_priority" route="C_B" depart="322.0" departLane="random" departSpeed="10" />
    <vehicle id="C_A34" type="low_priority" route="C_A" depart="339.0" departLane="random" departSpeed="10" />
    <vehicle id="C_B35" type="low_priority" route="C_B" depart="342.0" departLane="random" departSpeed="10" />
    <vehicle id="A_B36" type="low_priority" route="A_B" depart="344.0" departLane="random" departSpeed="10" />
    <vehicle id="A_B37" type="low_priority" route="A_B" depart="344.0" departLane="random" departSpeed="10" />
    <vehicle id="PA_B38" type="high_priority" route="A_B" depart="352.0" departLane="random" departSpeed="10" />
    <vehicle id="A_B39" type="low_priority" route="A_B" depart="353.0" departLane="random" departSpeed="10" />
    <vehicle id="A_C40" type="low_priority" route="A_C" depart="356.0" departLane="random" departSpeed="10" />
    <vehicle id="B_C41" type="low_priority" route="B_C" depart="364.0" departLane="random" departSpeed="10" />
    <vehicle id="A_B42" type="low_priority" route="A_B" depart="364.0" departLane="random" departSpeed="10" />
    <vehicle id="PC_B43" type="high_priority" route="C_B" depart="367.0" departLane="random" departSpeed="10" />
    <vehicle id="B_A44" type="low_priority" route="B_A" depart="370.0" departLane="random" departSpeed="10" />
    <vehicle id="A_C45" type="low_priority" route="A_C" depart="373.0" departLane="random" departSpeed="10" />
    <vehicle id="C_B46" type="low_priority" route="C_B" depart="381.0" departLane="random" departSpeed="10" />
    <vehicle id="A_C47" type="low_priority" route="A_C" depart="385.0" departLane="random" departSpeed="10" />
    <vehicle id="C_A48" type="low_priority" route="C_A" depart="387.0" departLane="random" departSpeed="10" />
    <vehicle id="C_B49" type="low_priority" route="C_B" depart="393.0" departLane="random" departSpeed="10" />
    <vehicle id="B_A50" type="low_priority" route="B_A" depart="400.0" departLane="random" departSpeed="10" />
    <vehicle id="A_C51" type="low_priority" route="A_C" depart="402.0" departLane="random" departSpeed="10" />
    <vehicle id="A_B52" type="low_priority" route="A_B" depart="402.0" departLane="random" departSpeed="10" />
    <vehicle id="B_A53" type="low_priority" route="B_A" depart="404.0" departLane="random" departSpeed="10" />
    <vehicle id="A_B54" type="low_priority" route="A_B" depart="406.0" departLane="random" departSpeed="10" />
    <vehicle id="A_C55" type="low_priority" route="A_C" depart="411.0" departLane="random" departSpeed="10" />
    <vehicle id="B_A56" type="low_priority" route="B_A" depart="413.0" departLane="random" departSpeed="10" />
    <vehicle id="A_C57" type="low_priority" route="A_C" depart="417.0" departLane="random" departSpeed="10" />
    <vehicle id="A_B58" type="low_priority" route="A_B" depart="420.0" departLane="random" departSpeed="10" />
    <vehicle id="C_B59" type="low_priority" route="C_B" depart="420.0" departLane="random" departSpeed="10" />
    <vehicle id="B_A60" type="low_priority" route="B_A" depart="420.0" departLane="random" departSpeed="10" />
    <vehicle id="A_B61" type="low_priority" route="A_B" depart="424.0" departLane="random" departSpeed="10" />
    <vehicle id="A_C62" type="low_priority" route="A_C" depart="433.0" departLane="random" departSpeed="10" />
    <vehicle id="C_A63" type="low_priority" route="C_A" depart="433.0" departLane="random" departSpeed="10" />
    <vehicle id="A_B64" type="low_priority" route="A_B" depart="437.0" departLane="random" departSpeed="10" />
    <vehicle id="A_C65" type="low_priority" route="A_C" depart="444.0" departLane="random" departSpeed="10" />
    <vehicle id="A_C66" type="low_priority" route="A_C" depart="444.0" departLane="random" departSpeed="10" />
    <vehicle id="C_B67" type="low_priority" route="C_B" depart="446.0" departLane="random" departSpeed="10" />
    <vehicle id="A_C68" type="low_priority" route="A_C" depart="449.0" departLane="random" departSpeed="10" />
    <vehicle id="A_B69" type="low_priority" route="A_B" depart="456.0" departLane="random" departSpeed="10" />
    <vehicle id="C_A70" type="low_priority" route="C_A" depart="457.0" departLane="random" departSpeed="10" />
    <vehicle id="B_A71" type="low_priority" route="B_A" depart="461.0" departLane="random" departSpeed="10" />
    <vehicle id="PA_B72" type="high_priority" route="A_B" depart="461.0" departLane="random" departSpeed="10" />
    <vehicle id="C_A73" type="low_priority" route="C_A" depart="464.0" departLane="random" departSpeed="10" />
    <vehicle id="B_C74" type="low_priority" route="B_C" depart="471.0" departLane="random" departSpeed="10" />
    <vehicle id="B_C75" type="low_priority" route="B_C" depart="471.0" departLane="random" departSpeed="10" />
    <vehicle id="B_C76" type="low_priority" route="B_C" depart="472.0" departLane="random" departSpeed="10" />
    <vehicle id="A_B77" type="low_priority" route="A_B" depart="473.0" departLane="random" departSpeed="10" />
    <vehicle id="C_A78" type="low_priority" route="C_A" depart="483.0" departLane="random" departSpeed="10" />
    <vehicle id="A_C79" type="low_priority" route="A_C" depart="485.0" departLane="random" departSpeed="10" />
    <vehicle id="B_C80" type="low_priority" route="B_C" depart="490.0" departLane="random" departSpeed="10" />
    <vehicle id="A_C81" type="low_priority" route="A_C" depart="496.0" departLane="random" departSpeed="10" />
    <vehicle id="A_B82" type="low_priority" route="A_B" depart="499.0" departLane="random" departSpeed="10" />
    <vehicle id="B_C83" type="low_priority" route="B_C" depart="502.0" departLane="random" departSpeed="10" />
    <vehicle id="PB_A84" type="high_priority" route="B_A" depart="504.0" departLane="random" departSpeed="10" />
    <vehicle id="A_B85" type="low_priority" route="A_B" depart="504.0" departLane="random" departSpeed="10" />
    <vehicle id="B_A86" type="low_priority" route="B_A" depart="505.0" departLane="random" departSpeed="10" />
    <vehicle id="C_A87" type="low_priority" route="C_A" depart="506.0" departLane="random" departSpeed="10" />
    <vehicle id="A_B88" type="low_priority" route="A_B" depart="507.0" departLane="random" departSpeed="10" />
    <vehicle id="B_A89" type="low_priority" route="B_A" depart="508.0" departLane="random" departSpeed="10" />
    <vehicle id="C_A90" type="low_priority" route="C_A" depart="509.0" departLane="random" departSpeed="10" />
    <vehicle id="C_B91" type="low_priority" route="C_B" depart="515.0" departLane="random" departSpeed="10" />
    <vehicle id="C_A92" type="low_priority" route="C_A" depart="521.0" departLane="random" departSpeed="10" />
    <vehicle id="B_A93" type="low_priority" route="B_A" depart="523.0" departLane="random" departSpeed="10" />
    <vehicle id="C_A94" type="low_priority" route="C_A" depart="523.0" departLane="random" departSpeed="10" />
    <vehicle id="A_B95" type="low_priority" route="A_B" depart="523.0" departLane="random" departSpeed="10" />
    <vehicle id="C_B96" type="low_priority" route="C_B" depart="527.0" departLane="random" departSpeed="10" />
    <vehicle id="A_B97" type="low_priority" route="A_B" depart="527.0" departLane="random" departSpeed="10" />
    <vehicle id="B_A98" type="low_priority" route="B_A" depart="532.0" departLane="random" departSpeed="10" />
    <vehicle id="PA_B99" type="high_priority" route="A_B" depart="536.0" departLane="random" departSpeed="10" />
    <vehicle id="C_B100" type="low_priority" route="C_B" depart="540.0" departLane="random" departSpeed="10" />
    <vehicle id="PA_B101" type="high_priority" route="A_B" depart="541.0" departLane="random" departSpeed="10" />
    <vehicle id="C_A102" type="low_priority" route="C_A" depart="544.0" departLane="random" departSpeed="10" />
    <vehicle id="PA_B103" type="high_priority" route="A_B" depart="548.0" departLane="random" departSpeed="10" />
    <vehicle id="B_C104" type="low_priority" route="B_C" depart="551.0" departLane="random" departSpeed="10" />
    <vehicle id="A_B105" type="low_priority" route="A_B" depart="559.0" departLane="random" departSpeed="10" />
    <vehicle id="A_C106" type="low_priority" route="A_C" depart="561.0" departLane="random" departSpeed="10" />
    <vehicle id="A_B107" type="low_priority" route="A_B" depart="561.0" departLane="random" departSpeed="10" />
    <vehicle id="C_B108" type="low_priority" route="C_B" depart="562.0" departLane="random" departSpeed="10" />
    <vehicle id="C_A109" type="low_priority" route="C_A" depart="562.0" departLane="random" departSpeed="10" />
    <vehicle id="C_A110" type="low_priority" route="C_A" depart="565.0" departLane="random" departSpeed="10" />
    <vehicle id="A_B111" type="low_priority" route="A_B" depart="567.0" departLane="random" departSpeed="10" />
    <vehicle id="A_C112" type="low_priority" route="A_C" depart="568.0" departLane="random" departSpeed="10" />
    <vehicle id="A_B113" type="low_priority" route="A_B" depart="570.0" departLane="random" departSpeed="10" />
    <vehicle id="B_A114" type="low_priority" route="B_A" depart="571.0" departLane="random" departSpeed="10" />
    <vehicle id="B_A115" type="low_priority" route="B_A" depart="577.0" departLane="random" departSpeed="10" />
    <vehicle id="PA_B116" type="high_priority" route="A_B" depart="584.0" departLane="random" departSpeed="10" />
    <vehicle id="C_A117" type="low_priority" route="C_A" depart="584.0" departLane="random" departSpeed="10" />
    <vehicle id="B_C118" type="low_priority" route="B_C" depart="590.0" departLane="random" departSpeed="10" />
    <vehicle id="B_C119" type="low_priority" route="B_C" depart="592.0" departLane="random" departSpeed="10" />
    <vehicle id="B_C120" type="low_priority" route="B_C" depart="593.0" departLane="random" departSpeed="10" />
    <vehicle id="C_B121" type="low_priority" route="C_B" depart="593.0" departLane="random" departSpeed="10" />
    <vehicle id="B_A122" type="low_priority" route="B_A" depart="594.0" departLane="random" departSpeed="10" />
    <vehicle id="C_A123" type="low_priority" route="C_A" depart="594.0" departLane="random" departSpeed="10" />
    <vehicle id="B_C124" type="low_priority" route="B_C" depart="596.0" departLane="random" departSpeed="10" />
    <vehicle id="A_B125" type="low_priority" route="A_B" depart="596.0" departLane="random" departSpeed="10" />
    <vehicle id="A_B126" type="low_priority" route="A_B" depart="599.0" departLane="random" departSpeed="10" />
    <vehicle id="PB_C127" type="high_priority" route="B_C" depart="599.0" departLane="random" departSpeed="10" />
    <vehicle id="B_C128" type="low_priority" route="B_C" depart="606.0" departLane="random" departSpeed="10" />
    <vehicle id="A_B129" type="low_priority" route="A_B" depart="608.0" departLane="random" departSpeed="10" />
    <vehicle id="A_C130" type="low_priority" route="A_C" depart="609.0" departLane="random" departSpeed="10" />
    <vehicle id="C_A131" type="low_priority" route="C_A" depart="612.0" departLane="random" departSpeed="10" />
    <vehicle id="C_A132" type="low_priority" route="C_A" depart="614.0" departLane="random" departSpeed="10" />
    <vehicle id="C_B133" type="low_priority" route="C_B" depart="614.0" departLane="random" departSpeed="10" />
    <vehicle id="C_B134" type="low_priority" route="C_B" depart="618.0" departLane="random" departSpeed="10" />
    <vehicle id="C_A135" type="low_priority" route="C_A" depart="623.0" departLane="random" departSpeed="10" />
    <vehicle id="A_B136" type="low_priority" route="A_B" depart="625.0" departLane="random" departSpeed="10" />
    <vehicle id="A_C137" type="low_priority" route="A_C" depart="630.0" departLane="random" departSpeed="10" />
    <vehicle id="B_C138" type="low_priority" route="B_C" depart="632.0" departLane="random" departSpeed="10" />
    <vehicle id="C_A139" type="low_priority" route="C_A" depart="634.0" departLane="random" departSpeed="10" />
    <vehicle id="A_B140" type="low_priority" route="A_B" depart="635.0" departLane="random" departSpeed="10" />
    <vehicle id="B_A141" type="low_priority" route="B_A" depart="636.0" departLane="random" departSpeed="10" />
    <vehicle id="B_C142" type="low_priority" route="B_C" depart="640.0" departLane="random" departSpeed="10" />
    <vehicle id="B_C143" type="low_priority" route="B_C" depart="643.0" departLane="random" departSpeed="10" />
    <vehicle id="B_A144" type="low_priority" route="B_A" depart="645.0" departLane="random" departSpeed="10" />
    <vehicle id="B_A145" type="low_priority" route="B_A" depart="645.0" departLane="random" departSpeed="10" />
    <vehicle id="C_B146" type="low_priority" route="C_B" depart="646.0" departLane="random" departSpeed="10" />
    <vehicle id="B_A147" type="low_priority" route="B_A" depart="653.0" departLane="random" departSpeed="10" />
    <vehicle id="B_C148" type="low_priority" route="B_C" depart="654.0" departLane="random" departSpeed="10" />
    <vehicle id="A_C149" type="low_priority" route="A_C" depart="654.0" departLane="random" departSpeed="10" />
    <vehicle id="B_A150" type="low_priority" route="B_A" depart="663.0" departLane="random" departSpeed="10" />
    <vehicle id="B_A151" type="low_priority" route="B_A" depart="663.0" departLane="random" departSpeed="10" />
    <vehicle id="A_C152" type="low_priority" route="A_C" depart="664.0" departLane="random" departSpeed="10" />
    <vehicle id="A_C153" type="low_priority" route="A_C" depart="664.0" departLane="random" departSpeed="10" />
    <vehicle id="C_A154" type="low_priority" route="C_A" depart="669.0" departLane="random" departSpeed="10" />
    <vehicle id="C_B155" type="low_priority" route="C_B" depart="670.0" departLane="random" departSpeed="10" />
    <vehicle id="C_A156" type="low_priority" route="C_A" depart="673.0" departLane="random" departSpeed="10" />
    <vehicle id="C_B157" type="low_priority" route="C_B" depart="683.0" departLane="random" departSpeed="10" />
    <vehicle id="A_C158" type="low_priority" route="A_C" depart="685.0" departLane="random" departSpeed="10" />
    <vehicle id="C_A159" type="low_priority" route="C_A" depart="685.0" departLane="random" departSpeed="10" />
    <vehicle id="B_A160" type="low_priority" route="B_A" depart="686.0" departLane="random" departSpeed="10" />
    <vehicle id="C_B161" type="low_priority" route="C_B" depart="686.0" departLane="random" departSpeed="10" />
    <vehicle id="B_A162" type="low_priority" route="B_A" depart="690.0" departLane="random" departSpeed="10" />
    <vehicle id="A_C163" type="low_priority" route="A_C" depart="693.0" departLane="random" departSpeed="10" />
    <vehicle id="C_A164" type="low_priority" route="C_A" depart="694.0" departLane="random" departSpeed="10" />
    <vehicle id="C_A165" type="low_priority" route="C_A" depart="697.0" departLane="random" departSpeed="10" />
    <vehicle id="C_B166" type="low_priority" route="C_B" depart="698.0" departLane="random" departSpeed="10" />
    <vehicle id="A_C167" type="low_priority" route="A_C" depart="699.0" departLane="random" departSpeed="10" />
    <vehicle id="A_B168" type="low_priority" route="A_B" depart="700.0" departLane="random" departSpeed="10" />
    <vehicle id="A_B169" type="low_priority" route="A_B" depart="703.0" departLane="random" departSpeed="10" />
    <vehicle id="C_A170" type="low_priority" route="C_A" depart="704.0" departLane="random" departSpeed="10" />
    <vehicle id="A_B171" type="low_priority" route="A_B" depart="715.0" departLane="random" departSpeed="10" />
    <vehicle id="B_C172" type="low_priority" route="B_C" depart="718.0" departLane="random" departSpeed="10" />
    <vehicle id="A_B173" type="low_priority" route="A_B" depart="722.0" departLane="random" departSpeed="10" />
    <vehicle id="C_A174" type="low_priority" route="C_A" depart="723.0" departLane="random" departSpeed="10" />
    <vehicle id="C_A175" type="low_priority" route="C_A" depart="723.0" departLane="random" departSpeed="10" />
    <vehicle id="C_B176" type="low_priority" route="C_B" depart="723.0" departLane="random" departSpeed="10" />
    <vehicle id="C_B177" type="low_priority" route="C_B" depart="726.0" departLane="random" departSpeed="10" />
    <vehicle id="A_B178" type="low_priority" route="A_B" depart="728.0" departLane="random" departSpeed="10" />
    <vehicle id="B_A179" type="low_priority" route="B_A" depart="731.0" departLane="random" departSpeed="10" />
    <vehicle id="A_B180" type="low_priority" route="A_B" depart="733.0" departLane="random" departSpeed="10" />
    <vehicle id="A_C181" type="low_priority" route="A_C" depart="734.0" departLane="random" departSpeed="10" />
    <vehicle id="A_B182" type="low_priority" route="A_B" depart="735.0" departLane="random" departSpeed="10" />
    <vehicle id="C_A183" type="low_priority" route="C_A" depart="741.0" departLane="random" departSpeed="10" />
    <vehicle id="B_C184" type="low_priority" route="B_C" depart="744.0" departLane="random" departSpeed="10" />
    <vehicle id="B_C185" type="low_priority" route="B_C" depart="747.0" departLane="random" departSpeed="10" />
    <vehicle id="A_B186" type="low_priority" route="A_B" depart="751.0" departLane="random" departSpeed="10" />
    <vehicle id="A_B187" type="low_priority" route="A_B" depart="751.0" departLane="random" departSpeed="10" />
    <vehicle id="C_A188" type="low_priority" route="C_A" depart="754.0" departLane="random" departSpeed="10" />
    <vehicle id="A_B189" type="low_priority" route="A_B" depart="755.0" departLane="random" departSpeed="10" />
    <vehicle id="A_B190" type="low_priority" route="A_B" depart="755.0" departLane="random" departSpeed="10" />
    <vehicle id="A_C191" type="low_priority" route="A_C" depart="761.0" departLane="random" departSpeed="10" />
    <vehicle id="B_A192" type="low_priority" route="B_A" depart="761.0" departLane="random" departSpeed="10" />
    <vehicle id="A_B193" type="low_priority" route="A_B" depart="762.0" departLane="random" departSpeed="10" />
    <vehicle id="A_C194" type="low_priority" route="A_C" depart="763.0" departLane="random" departSpeed="10" />
    <vehicle id="B_C195" type="low_priority" route="B_C" depart="767.0" departLane="random" departSpeed="10" />
    <vehicle id="A_B196" type="low_priority" route="A_B" depart="772.0" departLane="random" departSpeed="10" />
    <vehicle id="C_B197" type="low_priority" route="C_B" depart="782.0" departLane="random" departSpeed="10" />
    <vehicle id="B_A198" type="low_priority" route="B_A" depart="782.0" departLane="random" departSpeed="10" />
    <vehicle id="A_B199" type="low_priority" route="A_B" depart="787.0" departLane="random" departSpeed="10" />
    <vehicle id="B_C200" type="low_priority" route="B_C" depart="788.0" departLane="random" departSpeed="10" />
    <vehicle id="C_B201" type="low_priority" route="C_B" depart="789.0" departLane="random" departSpeed="10" />
    <vehicle id="C_B202" type="low_priority" route="C_B" depart="789.0" departLane="random" departSpeed="10" />
    <vehicle id="A_C203" type="low_priority" route="A_C" depart="798.0" departLane="random" departSpeed="10" />
    <vehicle id="C_A204" type="low_priority" route="C_A" depart="800.0" departLane="random" departSpeed="10" />
    <vehicle id="C_B205" type="low_priority" route="C_B" depart="802.0" departLane="random" departSpeed="10" />
    <vehicle id="C_A206" type="low_priority" route="C_A" depart="803.0" departLane="random" departSpeed="10" />
    <vehicle id="C_B207" type="low_priority" route="C_B" depart="803.0" departLane="random" departSpeed="10" />
    <vehicle id="B_C208" type="low_priority" route="B_C" depart="810.0" departLane="random" departSpeed="10" />
    <vehicle id="B_C209" type="low_priority" route="B_C" depart="814.0" departLane="random" departSpeed="10" />
    <vehicle id="B_A210" type="low_priority" route="B_A" depart="815.0" departLane="random" departSpeed="10" />
    <vehicle id="B_A211" type="low_priority" route="B_A" depart="815.0" departLane="random" departSpeed="10" />
    <vehicle id="A_B212" type="low_priority" route="A_B" depart="818.0" departLane="random" departSpeed="10" />
    <vehicle id="C_B213" type="low_priority" route="C_B" depart="821.0" departLane="random" departSpeed="10" />
    <vehicle id="B_C214" type="low_priority" route="B_C" depart="822.0" departLane="random" departSpeed="10" />
    <vehicle id="A_B215" type="low_priority" route="A_B" depart="827.0" departLane="random" departSpeed="10" />
    <vehicle id="B_A216" type="low_priority" route="B_A" depart="830.0" departLane="random" departSpeed="10" />
    <vehicle id="A_B217" type="low_priority" route="A_B" depart="830.0" departLane="random" departSpeed="10" />
    <vehicle id="C_B218" type="low_priority" route="C_B" depart="833.0" departLane="random" departSpeed="10" />
    <vehicle id="C_B219" type="low_priority" route="C_B" depart="833.0" departLane="random" departSpeed="10" />
    <vehicle id="A_C220" type="low_priority" route="A_C" depart="836.0" departLane="random" departSpeed="10" />
    <vehicle id="C_B221" type="low_priority" route="C_B" depart="836.0" departLane="random" departSpeed="10" />
    <vehicle id="A_C222" type="low_priority" route="A_C" depart="836.0" departLane="random" departSpeed="10" />
    <vehicle id="C_A223" type="low_priority" route="C_A" depart="838.0" departLane="random" departSpeed="10" />
    <vehicle id="C_A224" type="low_priority" route="C_A" depart="840.0" departLane="random" departSpeed="10" />
    <vehicle id="A_C225" type="low_priority" route="A_C" depart="843.0" departLane="random" departSpeed="10" />
    <vehicle id="B_C226" type="low_priority" route="B_C" depart="844.0" departLane="random" departSpeed="10" />
    <vehicle id="B_A227" type="low_priority" route="B_A" depart="845.0" departLane="random" departSpeed="10" />
    <vehicle id="B_A228" type="low_priority" route="B_A" depart="846.0" departLane="random" departSpeed="10" />
    <vehicle id="B_C229" type="low_priority" route="B_C" depart="846.0" departLane="random" departSpeed="10" />
    <vehicle id="A_C230" type="low_priority" route="A_C" depart="857.0" departLane="random" departSpeed="10" />
    <vehicle id="B_A231" type="low_priority" route="B_A" depart="858.0" departLane="random" departSpeed="10" />
    <vehicle id="A_C232" type="low_priority" route="A_C" depart="865.0" departLane="random" departSpeed="10" />
    <vehicle id="B_C233" type="low_priority" route="B_C" depart="867.0" departLane="random" departSpeed="10" />
    <vehicle id="C_B234" type="low_priority" route="C_B" depart="868.0" departLane="random" departSpeed="10" />
    <vehicle id="C_B235" type="low_priority" route="C_B" depart="871.0" departLane="random" departSpeed="10" />
    <vehicle id="A_C236" type="low_priority" route="A_C" depart="875.0" departLane="random" departSpeed="10" />
    <vehicle id="C_A237" type="low_priority" route="C_A" depart="878.0" departLane="random" departSpeed="10" />
    <vehicle id="B_A238" type="low_priority" route="B_A" depart="879.0" departLane="random" departSpeed="10" />
    <vehicle id="C_B239" type="low_priority" route="C_B" depart="881.0" departLane="random" departSpeed="10" />
    <vehicle id="B_C240" type="low_priority" route="B_C" depart="885.0" departLane="random" departSpeed="10" />
    <vehicle id="A_C241" type="low_priority" route="A_C" depart="887.0" departLane="random" departSpeed="10" />
    <vehicle id="C_B242" type="low_priority" route="C_B" depart="890.0" departLane="random" departSpeed="10" />
    <vehicle id="C_B243" type="low_priority" route="C_B" depart="890.0" departLane="random" departSpeed="10" />
    <vehicle id="A_C244" type="low_priority" route="A_C" depart="894.0" departLane="random" departSpeed="10" />
    <vehicle id="B_C245" type="low_priority" route="B_C" depart="897.0" departLane="random" departSpeed="10" />
    <vehicle id="C_B246" type="low_priority" route="C_B" depart="898.0" departLane="random" departSpeed="10" />
    <vehicle id="B_A247" type="low_priority" route="B_A" depart="902.0" departLane="random" departSpeed="10" />
    <vehicle id="C_A248" type="low_priority" route="C_A" depart="905.0" departLane="random" departSpeed="10" />
    <vehicle id="C_A249" type="low_priority" route="C_A" depart="906.0" departLane="random" departSpeed="10" />
    <vehicle id="C_A250" type="low_priority" route="C_A" depart="907.0" departLane="random" departSpeed="10" />
    <vehicle id="B_A251" type="low_priority" route="B_A" depart="911.0" departLane="random" departSpeed="10" />
    <vehicle id="C_B252" type="low_priority" route="C_B" depart="915.0" departLane="random" departSpeed="10" />
    <vehicle id="A_B253" type="low_priority" route="A_B" depart="915.0" departLane="random" departSpeed="10" />