<?xml version="1.0" encoding="UTF-8"?>

<!-- generated on 06/30/21 20:34:38 by Eclipse SUMO netedit Version 1.8.0
<configuration xmlns:xsi="http://www.w3.org/2001/XMLSchema-instance" xsi:noNamespaceSchemaLocation="http://sumo.dlr.de/xsd/netconvertConfiguration.xsd">

    <input>
        <sumo-net-file value="E:\Abhishek\Capstone%20phase%202\complex\5-way\intersection\environment.net.xml"/>
    </input>

    <output>
        <output-file value="E:\Abhishek\Capstone%20phase%202\complex\5-way\intersection\environment.net.xml"/>
    </output>

    <processing>
        <geometry.min-radius.fix.railways value="false"/>
        <geometry.max-grade.fix value="false"/>
        <offset.disable-normalization value="true"/>
        <lefthand value="false"/>
    </processing>

    <junctions>
        <no-turnarounds value="true"/>
        <junctions.corner-detail value="5"/>
        <junctions.limit-turn-speed value="5.5"/>
        <rectangular-lane-cut value="false"/>
    </junctions>

    <pedestrian>
        <walkingareas value="false"/>
    </pedestrian>

    <report>
        <aggregate-warnings value="5"/>
    </report>

</configuration>
-->

<net version="1.6" junctionCornerDetail="5" limitTurnSpeed="5.50" xmlns:xsi="http://www.w3.org/2001/XMLSchema-instance" xsi:noNamespaceSchemaLocation="http://sumo.dlr.de/xsd/net_file.xsd">

    <location netOffset="0.00,0.00" convBoundary="-475.52,-404.50,475.52,500.00" origBoundary="-10000000000.00,-10000000000.00,10000000000.00,10000000000.00" projParameter="!"/>

    <edge id=":TL_0" function="internal">
        <lane id=":TL_0_0" index="0" speed="5.93" length="9.10" shape="-11.20,21.62 -11.57,19.02 -12.67,17.45 -14.52,16.88 -17.10,17.33"/>
    </edge>
    <edge id=":TL_1" function="internal">
        <lane id=":TL_1_0" index="0" speed="13.89" length="37.24" shape="-8.00,21.62 -8.25,10.67 -9.60,3.12 -12.95,-3.78 -19.18,-12.79"/>
    </edge>
    <edge id=":TL_2" function="internal">
        <lane id=":TL_2_0" index="0" speed="13.89" length="45.19" shape="-4.80,21.62 -4.32,8.90 -2.40,-0.78 1.74,-9.75 8.82,-20.31"/>
    </edge>
    <edge id=":TL_3" function="internal">
        <lane id=":TL_3_0" index="0" speed="11.05" length="14.51" shape="-1.60,21.62 -0.14,11.81 2.53,8.07"/>
    </edge>
    <edge id=":TL_20" function="internal">
        <lane id=":TL_20_0" index="0" speed="11.05" length="20.20" shape="2.53,8.07 4.18,5.75 11.27,3.51 21.05,5.16"/>
    </edge>
    <edge id=":TL_4" function="internal">
        <lane id=":TL_4_0" index="0" speed="5.93" length="9.10" shape="17.10,17.33 14.52,16.88 12.67,17.45 11.57,19.02 11.20,21.62"/>
    </edge>
    <edge id=":TL_5" function="internal">
        <lane id=":TL_5_0" index="0" speed="13.89" length="37.24" shape="18.09,14.29 7.60,11.14 -0.00,10.10 -7.60,11.14 -18.09,14.29"/>
    </edge>
    <edge id=":TL_6" function="internal">
        <lane id=":TL_6_0" index="0" speed="13.89" length="26.22" shape="19.08,11.25 7.13,6.86 -1.48,2.04 -4.14,-0.42"/>
    </edge>
    <edge id=":TL_7" function="internal">
        <lane id=":TL_7_0" index="0" speed="11.05" length="14.51" shape="20.07,8.20 11.19,3.78 8.45,0.09"/>
    </edge>
    <edge id=":TL_21" function="internal">
        <lane id=":TL_21_0" index="0" speed="13.89" length="18.97" shape="-4.14,-0.42 -8.73,-4.66 -16.59,-14.67"/>
    </edge>
    <edge id=":TL_22" function="internal">
        <lane id=":TL_22_0" index="0" speed="11.05" length="20.20" shape="8.45,0.09 6.76,-2.20 6.83,-9.64 11.41,-18.43"/>
    </edge>
    <edge id=":TL_8" function="internal">
        <lane id=":TL_8_0" index="0" speed="5.93" length="9.09" shape="21.77,-10.91 20.54,-8.59 20.51,-6.66 21.67,-5.12 24.02,-3.97"/>
    </edge>
    <edge id=":TL_9" function="internal">
        <lane id=":TL_9_0" index="0" speed="13.89" length="37.24" shape="19.18,-12.79 12.95,-3.78 9.60,3.12 8.25,10.67 8.00,21.62"/>
    </edge>
    <edge id=":TL_10" function="internal">
        <lane id=":TL_10_0" index="0" speed="13.89" length="45.19" shape="16.59,-14.67 8.73,-4.66 1.48,2.04 -7.13,6.86 -19.08,11.25"/>
    </edge>
    <edge id=":TL_11" function="internal">
        <lane id=":TL_11_0" index="0" speed="11.05" length="34.71" shape="14.00,-16.55 7.05,-9.47 -0.00,-7.11 -7.05,-9.47 -14.00,-16.55"/>
    </edge>
    <edge id=":TL_12" function="internal">
        <lane id=":TL_12_0" index="0" speed="5.93" length="9.10" shape="-3.65,-24.07 -1.82,-22.19 0.00,-21.56 1.82,-22.19 3.65,-24.07"/>
    </edge>
    <edge id=":TL_13" function="internal">
        <lane id=":TL_13_0" index="0" speed="13.89" length="37.24" shape="-6.23,-22.19 0.40,-13.48 5.93,-8.17 12.70,-4.55 23.03,-0.93"/>
    </edge>
    <edge id=":TL_14" function="internal">
        <lane id=":TL_14_0" index="0" speed="13.89" length="14.76" shape="-8.82,-20.31 -1.74,-9.75 -0.88,-7.89"/>
    </edge>
    <edge id=":TL_15" function="internal">
        <lane id=":TL_15_0" index="0" speed="11.05" length="21.05" shape="-11.41,-18.43 -6.83,-9.64 -6.76,-2.20 -8.96,0.78"/>
    </edge>
    <edge id=":TL_23" function="internal">
        <lane id=":TL_23_0" index="0" speed="13.89" length="30.43" shape="-0.88,-7.89 2.40,-0.78 4.32,8.90 4.80,21.62"/>
    </edge>
    <edge id=":TL_24" function="internal">
        <lane id=":TL_24_0" index="0" speed="11.05" length="13.66" shape="-8.96,0.78 -11.19,3.78 -20.07,8.20"/>
    </edge>
    <edge id=":TL_16" function="internal">
        <lane id=":TL_16_0" index="0" speed="5.93" length="9.09" shape="-24.02,-3.97 -21.67,-5.12 -20.51,-6.66 -20.54,-8.59 -21.77,-10.91"/>
    </edge>
    <edge id=":TL_17" function="internal">
        <lane id=":TL_17_0" index="0" speed="13.89" length="37.24" shape="-23.03,-0.93 -12.70,-4.55 -5.93,-8.17 -0.40,-13.48 6.23,-22.19"/>
    </edge>
    <edge id=":TL_18" function="internal">
        <lane id=":TL_18_0" index="0" speed="13.89" length="45.19" shape="-22.04,2.12 -9.81,-1.36 0.00,-2.52 9.81,-1.36 22.04,2.12"/>
    </edge>
    <edge id=":TL_19" function="internal">
        <lane id=":TL_19_0" index="0" speed="11.05" length="21.05" shape="-21.05,5.16 -11.27,3.51 -4.18,5.75 -2.03,8.76"/>
    </edge>
    <edge id=":TL_25" function="internal">
        <lane id=":TL_25_0" index="0" speed="11.05" length="13.66" shape="-2.03,8.76 0.14,11.81 1.60,21.62"/>
    </edge>

    <edge id="A2TL" from="A" to="TL" priority="-1">
        <lane id="A2TL_0" index="0" speed="13.89" length="478.38" shape="-11.20,500.00 -11.20,21.62"/>
        <lane id="A2TL_1" index="1" speed="13.89" length="478.38" shape="-8.00,500.00 -8.00,21.62"/>
        <lane id="A2TL_2" index="2" speed="13.89" length="478.38" shape="-4.80,500.00 -4.80,21.62"/>
        <lane id="A2TL_3" index="3" speed="13.89" length="478.38" shape="-1.60,500.00 -1.60,21.62"/>
    </edge>
    <edge id="B2TL" from="B" to="TL" priority="-1">
        <lane id="B2TL_0" index="0" speed="13.89" length="478.37" shape="472.06,165.15 17.10,17.33"/>
        <lane id="B2TL_1" index="1" speed="13.89" length="478.37" shape="473.05,162.11 18.09,14.29"/>
        <lane id="B2TL_2" index="2" speed="13.89" length="478.37" shape="474.04,159.07 19.08,11.25"/>
        <lane id="B2TL_3" index="3" speed="13.89" length="478.37" shape="475.03,156.02 20.07,8.20"/>
    </edge>
    <edge id="C2TL" from="C" to="TL" priority="-1">
        <lane id="C2TL_0" index="0" speed="13.89" length="478.37" shape="302.95,-397.92 21.77,-10.91"/>
        <lane id="C2TL_1" index="1" speed="13.89" length="478.37" shape="300.36,-399.80 19.18,-12.79"/>
        <lane id="C2TL_2" index="2" speed="13.89" length="478.37" shape="297.77,-401.68 16.59,-14.67"/>
        <lane id="C2TL_3" index="3" speed="13.89" length="478.37" shape="295.18,-403.56 14.00,-16.55"/>
    </edge>
    <edge id="D2TL" from="D" to="TL" priority="-1">
        <lane id="D2TL_0" index="0" speed="13.89" length="478.37" shape="-284.83,-411.08 -3.65,-24.07"/>
        <lane id="D2TL_1" index="1" speed="13.89" length="478.37" shape="-287.42,-409.20 -6.23,-22.19"/>
        <lane id="D2TL_2" index="2" speed="13.89" length="478.37" shape="-290.01,-407.32 -8.82,-20.31"/>
        <lane id="D2TL_3" index="3" speed="13.89" length="478.37" shape="-292.60,-405.44 -11.41,-18.43"/>
    </edge>
    <edge id="E2TL" from="E" to="TL" priority="-1">
        <lane id="E2TL_0" index="0" speed="13.89" length="478.37" shape="-478.98,143.85 -24.02,-3.97"/>
        <lane id="E2TL_1" index="1" speed="13.89" length="478.37" shape="-477.99,146.89 -23.03,-0.93"/>
        <lane id="E2TL_2" index="2" speed="13.89" length="478.37" shape="-477.00,149.93 -22.04,2.12"/>
        <lane id="E2TL_3" index="3" speed="13.89" length="478.37" shape="-476.01,152.98 -21.05,5.16"/>
    </edge>
    <edge id="TL2A" from="TL" to="A" priority="-1">
        <lane id="TL2A_0" index="0" speed="13.89" length="478.38" shape="11.20,21.62 11.20,500.00"/>
        <lane id="TL2A_1" index="1" speed="13.89" length="478.38" shape="8.00,21.62 8.00,500.00"/>
        <lane id="TL2A_2" index="2" speed="13.89" length="478.38" shape="4.80,21.62 4.80,500.00"/>
        <lane id="TL2A_3" index="3" speed="13.89" length="478.38" shape="1.60,21.62 1.60,500.00"/>
    </edge>
    <edge id="TL2B" from="TL" to="B" priority="-1">
        <lane id="TL2B_0" index="0" speed="13.89" length="478.37" shape="24.02,-3.97 478.98,143.85"/>
        <lane id="TL2B_1" index="1" speed="13.89" length="478.37" shape="23.03,-0.93 477.99,146.89"/>
        <lane id="TL2B_2" index="2" speed="13.89" length="478.37" shape="22.04,2.12 477.00,149.93"/>
        <lane id="TL2B_3" index="3" speed="13.89" length="478.37" shape="21.05,5.16 476.01,152.98"/>
    </edge>
    <edge id="TL2C" from="TL" to="C" priority="-1">
        <lane id="TL2C_0" index="0" speed="13.89" length="478.37" shape="3.65,-24.07 284.83,-411.08"/>
        <lane id="TL2C_1" index="1" speed="13.89" length="478.37" shape="6.23,-22.19 287.42,-409.20"/>
        <lane id="TL2C_2" index="2" speed="13.89" length="478.37" shape="8.82,-20.31 290.01,-407.32"/>
        <lane id="TL2C_3" index="3" speed="13.89" length="478.37" shape="11.41,-18.43 292.60,-405.44"/>
    </edge>
    <edge id="TL2D" from="TL" to="D" priority="-1">
        <lane id="TL2D_0" index="0" speed="13.89" length="478.37" shape="-21.77,-10.91 -302.95,-397.92"/>
        <lane id="TL2D_1" index="1" speed="13.89" length="478.37" shape="-19.18,-12.79 -300.36,-399.80"/>
        <lane id="TL2D_2" index="2" speed="13.89" length="478.37" shape="-16.59,-14.67 -297.77,-401.68"/>
        <lane id="TL2D_3" index="3" speed="13.89" length="478.37" shape="-14.00,-16.55 -295.18,-403.56"/>
    </edge>
    <edge id="TL2E" from="TL" to="E" priority="-1">
        <lane id="TL2E_0" index="0" speed="13.89" length="478.37" shape="-17.10,17.33 -472.06,165.15"/>
        <lane id="TL2E_1" index="1" speed="13.89" length="478.37" shape="-18.09,14.29 -473.05,162.11"/>
        <lane id="TL2E_2" index="2" speed="13.89" length="478.37" shape="-19.08,11.25 -474.04,159.07"/>
        <lane id="TL2E_3" index="3" speed="13.89" length="478.37" shape="-20.07,8.20 -475.03,156.02"/>
    </edge>

    <tlLogic id="TL" type="static" programID="0" offset="0">
        <phase duration="100" state="GGGGrrrrrrrrrrrrrrrr"/>
        <phase duration="100" state="yyyyrrrrrrrrrrrrrrrr"/>
        <phase duration="100" state="rrrrGGGGrrrrrrrrrrrr"/>
        <phase duration="100" state="rrrryyyyrrrrrrrrrrrr"/>
        <phase duration="100" state="rrrrrrrrGGGGrrrrrrrr"/>
        <phase duration="100" state="rrrrrrrryyyyrrrrrrrr"/>
        <phase duration="100" state="rrrrrrrrrrrrGGGGrrrr"/>
        <phase duration="100" state="rrrrrrrrrrrryyyyrrrr"/>
        <phase duration="100" state="rrrrrrrrrrrrrrrrGGGG"/>
        <phase duration="100" state="rrrrrrrrrrrrrrrryyyy"/>
    </tlLogic>

    <junction id="A" type="dead_end" x="0.00" y="500.00" incLanes="TL2A_0 TL2A_1 TL2A_2 TL2A_3" intLanes="" shape="0.00,500.00 12.80,500.00 0.00,500.00"/>
    <junction id="B" type="dead_end" x="475.52" y="154.50" incLanes="TL2B_0 TL2B_1 TL2B_2 TL2B_3" intLanes="" shape="475.52,154.50 479.48,142.33 475.52,154.50"/>
    <junction id="C" type="dead_end" x="293.89" y="-404.50" incLanes="TL2C_0 TL2C_1 TL2C_2 TL2C_3" intLanes="" shape="293.89,-404.50 283.53,-412.02 293.89,-404.50"/>
    <junction id="D" type="dead_end" x="-293.89" y="-404.50" incLanes="TL2D_0 TL2D_1 TL2D_2 TL2D_3" intLanes="" shape="-293.89,-404.50 -304.25,-396.98 -293.89,-404.50"/>
    <junction id="E" type="dead_end" x="-475.52" y="154.50" incLanes="TL2E_0 TL2E_1 TL2E_2 TL2E_3" intLanes="" shape="-475.52,154.50 -471.56,166.67 -475.52,154.50"/>
    <junction id="TL" type="traffic_light" x="0.00" y="0.00" incLanes="A2TL_0 A2TL_1 A2TL_2 A2TL_3 B2TL_0 B2TL_1 B2TL_2 B2TL_3 C2TL_0 C2TL_1 C2TL_2 C2TL_3 D2TL_0 D2TL_1 D2TL_2 D2TL_3 E2TL_0 E2TL_1 E2TL_2 E2TL_3" intLanes=":TL_0_0 :TL_1_0 :TL_2_0 :TL_20_0 :TL_4_0 :TL_5_0 :TL_21_0 :TL_22_0 :TL_8_0 :TL_9_0 :TL_10_0 :TL_11_0 :TL_12_0 :TL_13_0 :TL_23_0 :TL_24_0 :TL_16_0 :TL_17_0 :TL_18_0 :TL_25_0" shape="-12.80,21.62 12.80,21.62 13.22,19.53 13.75,18.93 14.49,18.61 15.44,18.59 16.60,18.85 24.52,-5.49 22.66,-6.54 22.25,-7.23 22.18,-8.03 22.45,-8.94 23.06,-9.97 2.35,-25.01 0.78,-23.57 -0.00,-23.39 -0.78,-23.57 -1.57,-24.11 -2.35,-25.01 -23.06,-9.97 -22.18,-8.03 -22.25,-7.23 -22.66,-6.54 -23.42,-5.96 -24.52,-5.49 -16.60,18.85 -14.49,18.61 -13.75,18.93 -13.22,19.53 -12.91,20.43">
        <request index="0"  response="00000000000000000000" foes="00000000000000000000" cont="0"/>
        <request index="1"  response="11100000010000100000" foes="11101000010000100000" cont="0"/>
        <request index="2"  response="11000010000001100000" foes="11000110110001100000" cont="0"/>
        <request index="3"  response="10000100001011100000" foes="10000100001011100000" cont="1"/>
        <request index="4"  response="00000000000000000000" foes="00000000000000000000" cont="0"/>
        <request index="5"  response="00000100000000001000" foes="10000100001000001110" cont="0"/>
        <request index="6"  response="01101100000000001000" foes="01101100011000001100" cont="1"/>
        <request index="7"  response="01000000000000001000" foes="01000010111000001000" cont="1"/>
        <request index="8"  response="00000000000000000000" foes="00000000000000000000" cont="0"/>
        <request index="9"  response="01000010000011101000" foes="01000010000011101000" cont="0"/>
        <request index="10" response="11000100000011000100" foes="11000110000011000110" cont="0"/>
        <request index="11" response="00101110000010000100" foes="00101110000010000100" cont="0"/>
        <request index="12" response="00000000000000000000" foes="00000000000000000000" cont="0"/>
        <request index="13" response="00100000010010000000" foes="00100000111010000100" cont="0"/>
        <request index="14" response="01100000110001100100" foes="01100000110001101100" cont="1"/>
        <request index="15" response="11100000100001000010" foes="11100000100001000010" cont="1"/>
        <request index="16" response="00000000000000000000" foes="00000000000000000000" cont="0"/>
        <request index="17" response="00001100000000000000" foes="00001110100001000010" cont="0"/>
        <request index="18" response="00001100000000000000" foes="00001100011011000110" cont="0"/>
        <request index="19" response="00001000000000101000" foes="00001000010000101110" cont="1"/>
    </junction>

    <junction id=":TL_20_0" type="internal" x="2.53" y="8.07" incLanes=":TL_3_0 D2TL_2" intLanes=":TL_5_0 :TL_6_0 :TL_7_0 :TL_9_0 :TL_14_0 :TL_19_0"/>
    <junction id=":TL_21_0" type="internal" x="-4.14" y="-0.42" incLanes=":TL_6_0 E2TL_1 E2TL_2" intLanes=":TL_2_0 :TL_3_0 :TL_9_0 :TL_10_0 :TL_14_0 :TL_15_0 :TL_17_0 :TL_18_0"/>
    <junction id=":TL_22_0" type="internal" x="8.45" y="0.09" incLanes=":TL_7_0 E2TL_2" intLanes=":TL_3_0 :TL_9_0 :TL_10_0 :TL_11_0 :TL_13_0 :TL_18_0"/>
    <junction id=":TL_23_0" type="internal" x="-0.88" y="-7.89" incLanes=":TL_14_0 A2TL_2" intLanes=":TL_2_0 :TL_3_0 :TL_5_0 :TL_6_0 :TL_10_0 :TL_11_0 :TL_17_0 :TL_18_0"/>
    <junction id=":TL_24_0" type="internal" x="-8.96" y="0.78" incLanes=":TL_15_0 A2TL_1" intLanes=":TL_1_0 :TL_6_0 :TL_11_0 :TL_17_0 :TL_18_0 :TL_19_0"/>
    <junction id=":TL_25_0" type="internal" x="-2.03" y="8.76" incLanes=":TL_19_0 B2TL_1" intLanes=":TL_1_0 :TL_2_0 :TL_3_0 :TL_5_0 :TL_10_0 :TL_15_0"/>

    <connection from="A2TL" to="TL2E" fromLane="0" toLane="0" via=":TL_0_0" tl="TL" linkIndex="0" dir="r" state="O"/>
    <connection from="A2TL" to="TL2D" fromLane="1" toLane="1" via=":TL_1_0" tl="TL" linkIndex="1" dir="R" state="o"/>
    <connection from="A2TL" to="TL2C" fromLane="2" toLane="2" via=":TL_2_0" tl="TL" linkIndex="2" dir="s" state="o"/>
    <connection from="A2TL" to="TL2B" fromLane="3" toLane="3" via=":TL_3_0" tl="TL" linkIndex="3" dir="l" state="o"/>
    <connection from="B2TL" to="TL2A" fromLane="0" toLane="0" via=":TL_4_0" tl="TL" linkIndex="4" dir="r" state="O"/>
    <connection from="B2TL" to="TL2E" fromLane="1" toLane="1" via=":TL_5_0" tl="TL" linkIndex="5" dir="s" state="O"/>
    <connection from="B2TL" to="TL2D" fromLane="2" toLane="2" via=":TL_6_0" tl="TL" linkIndex="6" dir="L" state="o"/>
    <connection from="B2TL" to="TL2C" fromLane="3" toLane="3" via=":TL_7_0" tl="TL" linkIndex="7" dir="l" state="o"/>
    <connection from="C2TL" to="TL2B" fromLane="0" toLane="0" via=":TL_8_0" tl="TL" linkIndex="8" dir="r" state="O"/>
    <connection from="C2TL" to="TL2A" fromLane="1" toLane="1" via=":TL_9_0" tl="TL" linkIndex="9" dir="R" state="o"/>
    <connection from="C2TL" to="TL2E" fromLane="2" toLane="2" via=":TL_10_0" tl="TL" linkIndex="10" dir="s" state="o"/>
    <connection from="C2TL" to="TL2D" fromLane="3" toLane="3" via=":TL_11_0" tl="TL" linkIndex="11" dir="l" state="o"/>
    <connection from="D2TL" to="TL2C" fromLane="0" toLane="0" via=":TL_12_0" tl="TL" linkIndex="12" dir="r" state="O"/>
    <connection from="D2TL" to="TL2B" fromLane="1" toLane="1" via=":TL_13_0" tl="TL" linkIndex="13" dir="s" state="o"/>
    <connection from="D2TL" to="TL2A" fromLane="2" toLane="2" via=":TL_14_0" tl="TL" linkIndex="14" dir="L" state="o"/>
    <connection from="D2TL" to="TL2E" fromLane="3" toLane="3" via=":TL_15_0" tl="TL" linkIndex="15" dir="l" state="o"/>
    <connection from="E2TL" to="TL2D" fromLane="0" toLane="0" via=":TL_16_0" tl="TL" linkIndex="16" dir="r" state="O"/>
    <connection from="E2TL" to="TL2C" fromLane="1" toLane="1" via=":TL_17_0" tl="TL" linkIndex="17" dir="R" state="O"/>
    <connection from="E2TL" to="TL2B" fromLane="2" toLane="2" via=":TL_18_0" tl="TL" linkIndex="18" dir="s" state="O"/>
    <connection from="E2TL" to="TL2A" fromLane="3" toLane="3" via=":TL_19_0" tl="TL" linkIndex="19" dir="l" state="o"/>

    <connection from=":TL_0" to="TL2E" fromLane="0" toLane="0" dir="r" state="M"/>
    <connection from=":TL_1" to="TL2D" fromLane="0" toLane="1" dir="R" state="M"/>
    <connection from=":TL_2" to="TL2C" fromLane="0" toLane="2" dir="s" state="M"/>
    <connection from=":TL_3" to="TL2B" fromLane="0" toLane="3" via=":TL_20_0" dir="l" state="m"/>
    <connection from=":TL_20" to="TL2B" fromLane="0" toLane="3" dir="l" state="M"/>
    <connection from=":TL_4" to="TL2A" fromLane="0" toLane="0" dir="r" state="M"/>
    <connection from=":TL_5" to="TL2E" fromLane="0" toLane="1" dir="s" state="M"/>
    <connection from=":TL_6" to="TL2D" fromLane="0" toLane="2" via=":TL_21_0" dir="L" state="m"/>
    <connection from=":TL_21" to="TL2D" fromLane="0" toLane="2" dir="L" state="M"/>
    <connection from=":TL_7" to="TL2C" fromLane="0" toLane="3" via=":TL_22_0" dir="l" state="m"/>
    <connection from=":TL_22" to="TL2C" fromLane="0" toLane="3" dir="l" state="M"/>
    <connection from=":TL_8" to="TL2B" fromLane="0" toLane="0" dir="r" state="M"/>
    <connection from=":TL_9" to="TL2A" fromLane="0" toLane="1" dir="R" state="M"/>
    <connection from=":TL_10" to="TL2E" fromLane="0" toLane="2" dir="s" state="M"/>
    <connection from=":TL_11" to="TL2D" fromLane="0" toLane="3" dir="l" state="M"/>
    <connection from=":TL_12" to="TL2C" fromLane="0" toLane="0" dir="r" state="M"/>
    <connection from=":TL_13" to="TL2B" fromLane="0" toLane="1" dir="s" state="M"/>
    <connection from=":TL_14" to="TL2A" fromLane="0" toLane="2" via=":TL_23_0" dir="L" state="m"/>
    <connection from=":TL_23" to="TL2A" fromLane="0" toLane="2" dir="L" state="M"/>
    <connection from=":TL_15" to="TL2E" fromLane="0" toLane="3" via=":TL_24_0" dir="l" state="m"/>
    <connection from=":TL_24" to="TL2E" fromLane="0" toLane="3" dir="l" state="M"/>
    <connection from=":TL_16" to="TL2D" fromLane="0" toLane="0" dir="r" state="M"/>
    <connection from=":TL_17" to="TL2C" fromLane="0" toLane="1" dir="R" state="M"/>
    <connection from=":TL_18" to="TL2B" fromLane="0" toLane="2" dir="s" state="M"/>
    <connection from=":TL_19" to="TL2A" fromLane="0" toLane="3" via=":TL_25_0" dir="l" state="m"/>
    <connection from=":TL_25" to="TL2A" fromLane="0" toLane="3" dir="l" state="M"/>

</net>
