<routes>
            <vTypeDistribution id="low_priority">
                <vType id="standard_car" vClass="passenger" guiShape="passenger" speedDev="0.2" latAlignment="arbitrary" sigma="0.5" probability="0.5" />
                <vType id="bike" vClass="motorcycle" guiShape="motorcycle" speedDev="0.2" latAlignment="arbitrary" sigma="0.5" probability="0.1"/>
                <vType id="bus" vClass="bus" guiShape="truck" speedDev="0.2" latAlignment="arbitrary" sigma="0.5" probability="0.2"/>
                <vType id="taxi" vClass="taxi" guiShape="passenger/sedan" speedDev="0.2" latAlignment="arbitrary" sigma="0.5" color = "255,0,0" probability="0.2"/>
            </vTypeDistribution>
        
            <vTypeDistribution id="high_priority">
                <vType id="amb" vClass="emergency" guiShape="emergency" speedDev="0.2" latAlignment="arbitrary" probability="0.4"><param key="has.bluelight.device" value="true"/></vType>
                <vType id="pol" vClass="authority" guiShape="police" speedDev="0.4" latAlignment="arbitrary" probability="0.4"><param key="has.bluelight.device" value="true"/></vType>
                <vType id="fire" vClass="emergency" guiShape="firebrigade" speedDev="0.4" latAlignment="arbitrary" probability="0.2"><param key="has.bluelight.device" value="true"/></vType>
            </vTypeDistribution>
            
            <route id="W_N" edges="W2TL TL2N"/>
            <route id="W_E" edges="W2TL TL2E"/>
            <route id="W_S" edges="W2TL TL2S"/>
            <route id="N_W" edges="N2TL TL2W"/>
            <route id="N_E" edges="N2TL TL2E"/>
            <route id="N_S" edges="N2TL TL2S"/>
            <route id="E_W" edges="E2TL TL2W"/>
            <route id="E_N" edges="E2TL TL2N"/>
            <route id="E_S" edges="E2TL TL2S"/>
            <route id="S_W" edges="S2TL TL2W"/>
            <route id="S_N" edges="S2TL TL2N"/>
            <route id="S_E" edges="S2TL TL2E"/>
    <vehicle id="S_E_0" type="low_priority" route="S_E" depart="66.0" departLane="random" departSpeed="10" />
    <vehicle id="W_E_1" type="low_priority" route="W_E" depart="78.0" departLane="random" departSpeed="10" />
    <vehicle id="E_N_2" type="low_priority" route="E_N" depart="123.0" departLane="random" departSpeed="10" />
    <vehicle id="S_N_3" type="low_priority" route="S_N" depart="124.0" departLane="random" departSpeed="10" />
    <vehicle id="PN_E_4" type="high_priority" route="N_E" depart="132.0" departLane="random" departSpeed="10" />
    <vehicle id="S_N_5" type="low_priority" route="S_N" depart="142.0" departLane="random" departSpeed="10" />
    <vehicle id="E_W_6" type="low_priority" route="E_W" depart="145.0" departLane="random" departSpeed="10" />
    <vehicle id="N_E_7" type="low_priority" route="N_E" depart="146.0" departLane="random" departSpeed="10" />
    <vehicle id="S_W_8" type="low_priority" route="S_W" depart="185.0" departLane="random" departSpeed="10" />
    <vehicle id="E_S_9" type="low_priority" route="E_S" depart="186.0" departLane="random" departSpeed="10" />
    <vehicle id="S_N_10" type="low_priority" route="S_N" depart="188.0" departLane="random" departSpeed="10" />
    <vehicle id="N_S_11" type="low_priority" route="N_S" depart="189.0" departLane="random" departSpeed="10" />
    <vehicle id="N_W_12" type="low_priority" route="N_W" depart="189.0" departLane="random" departSpeed="10" />
    <vehicle id="S_W_13" type="low_priority" route="S_W" depart="202.0" departLane="random" departSpeed="10" />
    <vehicle id="W_E_14" type="low_priority" route="W_E" depart="212.0" departLane="random" departSpeed="10" />
    <vehicle id="S_N_15" type="low_priority" route="S_N" depart="212.0" departLane="random" departSpeed="10" />
    <vehicle id="N_W_16" type="low_priority" route="N_W" depart="222.0" departLane="random" departSpeed="10" />
    <vehicle id="N_S_17" type="low_priority" route="N_S" depart="243.0" departLane="random" departSpeed="10" />
    <vehicle id="S_E_18" type="low_priority" route="S_E" depart="243.0" departLane="random" departSpeed="10" />
    <vehicle id="S_N_19" type="low_priority" route="S_N" depart="247.0" departLane="random" departSpeed="10" />
    <vehicle id="E_S_20" type="low_priority" route="E_S" depart="250.0" departLane="random" departSpeed="10" />
    <vehicle id="E_S_21" type="low_priority" route="E_S" depart="267.0" departLane="random" departSpeed="10" />
    <vehicle id="E_N_22" type="low_priority" route="E_N" depart="273.0" departLane="random" departSpeed="10" />
    <vehicle id="N_E_23" type="low_priority" route="N_E" depart="277.0" departLane="random" departSpeed="10" />
    <vehicle id="E_W_24" type="low_priority" route="E_W" depart="289.0" departLane="random" departSpeed="10" />
    <vehicle id="N_W_25" type="low_priority" route="N_W" depart="290.0" departLane="random" departSpeed="10" />
    <vehicle id="S_W_26" type="low_priority" route="S_W" depart="292.0" departLane="random" departSpeed="10" />
    <vehicle id="W_E_27" type="low_priority" route="W_E" depart="294.0" departLane="random" departSpeed="10" />
    <vehicle id="S_E_28" type="low_priority" route="S_E" depart="303.0" departLane="random" departSpeed="10" />
    <vehicle id="W_N_29" type="low_priority" route="W_N" depart="308.0" departLane="random" departSpeed="10" />
    <vehicle id="N_W_30" type="low_priority" route="N_W" depart="313.0" departLane="random" departSpeed="10" />
    <vehicle id="W_E_31" type="low_priority" route="W_E" depart="318.0" departLane="random" departSpeed="10" />
    <vehicle id="W_E_32" type="low_priority" route="W_E" depart="322.0" departLane="random" departSpeed="10" />
    <vehicle id="W_E_33" type="low_priority" route="W_E" depart="322.0" departLane="random" departSpeed="10" />
    <vehicle id="E_N_34" type="low_priority" route="E_N" depart="339.0" departLane="random" departSpeed="10" />
    <vehicle id="S_E_35" type="low_priority" route="S_E" depart="342.0" departLane="random" departSpeed="10" />
    <vehicle id="E_S_36" type="low_priority" route="E_S" depart="344.0" departLane="random" departSpeed="10" />
    <vehicle id="N_W_37" type="low_priority" route="N_W" depart="344.0" departLane="random" departSpeed="10" />
    <vehicle id="PE_S_38" type="high_priority" route="E_S" depart="352.0" departLane="random" departSpeed="10" />
    <vehicle id="E_W_39" type="low_priority" route="E_W" depart="353.0" departLane="random" departSpeed="10" />
    <vehicle id="N_E_40" type="low_priority" route="N_E" depart="356.0" departLane="random" departSpeed="10" />
    <vehicle id="S_W_41" type="low_priority" route="S_W" depart="364.0" departLane="random" departSpeed="10" />
    <vehicle id="N_W_42" type="low_priority" route="N_W" depart="364.0" departLane="random" departSpeed="10" />
    <vehicle id="PW_N_43" type="high_priority" route="W_N" depart="367.0" departLane="random" departSpeed="10" />
    <vehicle id="N_E_44" type="low_priority" route="N_E" depart="370.0" departLane="random" departSpeed="10" />
    <vehicle id="N_S_45" type="low_priority" route="N_S" depart="373.0" departLane="random" departSpeed="10" />
    <vehicle id="W_N_46" type="low_priority" route="W_N" depart="381.0" departLane="random" departSpeed="10" />
    <vehicle id="E_W_47" type="low_priority" route="E_W" depart="385.0" departLane="random" departSpeed="10" />
    <vehicle id="S_N_48" type="low_priority" route="S_N" depart="387.0" departLane="random" departSpeed="10" />
    <vehicle id="W_E_49" type="low_priority" route="W_E" depart="393.0" departLane="random" departSpeed="10" />
    <vehicle id="W_N_50" type="low_priority" route="W_N" depart="400.0" departLane="random" departSpeed="10" />
    <vehicle id="S_E_51" type="low_priority" route="S_E" depart="402.0" departLane="random" departSpeed="10" />
    <vehicle id="W_N_52" type="low_priority" route="W_N" depart="402.0" departLane="random" departSpeed="10" />
    <vehicle id="S_W_53" type="low_priority" route="S_W" depart="404.0" departLane="random" departSpeed="10" />
    <vehicle id="N_S_54" type="low_priority" route="N_S" depart="406.0" departLane="random" departSpeed="10" />
    <vehicle id="E_S_55" type="low_priority" route="E_S" depart="411.0" departLane="random" departSpeed="10" />
    <vehicle id="S_W_56" type="low_priority" route="S_W" depart="413.0" departLane="random" departSpeed="10" />
    <vehicle id="S_E_57" type="low_priority" route="S_E" depart="417.0" departLane="random" departSpeed="10" />
    <vehicle id="E_N_58" type="low_priority" route="E_N" depart="420.0" departLane="random" departSpeed="10" />
    <vehicle id="E_N_59" type="low_priority" route="E_N" depart="420.0" departLane="random" departSpeed="10" />
    <vehicle id="S_N_60" type="low_priority" route="S_N" depart="420.0" departLane="random" departSpeed="10" />
    <vehicle id="S_W_61" type="low_priority" route="S_W" depart="424.0" departLane="random" departSpeed="10" />
    <vehicle id="E_S_62" type="low_priority" route="E_S" depart="433.0" departLane="random" departSpeed="10" />
    <vehicle id="E_W_63" type="low_priority" route="E_W" depart="433.0" departLane="random" departSpeed="10" />
    <vehicle id="E_W_64" type="low_priority" route="E_W" depart="437.0" departLane="random" departSpeed="10" />
    <vehicle id="W_E_65" type="low_priority" route="W_E" depart="444.0" departLane="random" departSpeed="10" />
    <vehicle id="N_S_66" type="low_priority" route="N_S" depart="444.0" departLane="random" departSpeed="10" />
    <vehicle id="N_S_67" type="low_priority" route="N_S" depart="446.0" departLane="random" departSpeed="10" />
    <vehicle id="W_N_68" type="low_priority" route="W_N" depart="449.0" departLane="random" departSpeed="10" />
    <vehicle id="S_N_69" type="low_priority" route="S_N" depart="456.0" departLane="random" departSpeed="10" />
    <vehicle id="N_W_70" type="low_priority" route="N_W" depart="457.0" departLane="random" departSpeed="10" />
    <vehicle id="E_N_71" type="low_priority" route="E_N" depart="461.0" departLane="random" departSpeed="10" />
    <vehicle id="S_E_72" type="low_priority" route="S_E" depart="461.0" departLane="random" departSpeed="10" />
    <vehicle id="W_N_73" type="low_priority" route="W_N" depart="464.0" departLane="random" departSpeed="10" />
    <vehicle id="N_W_74" type="low_priority" route="N_W" depart="471.0" departLane="random" departSpeed="10" />
    <vehicle id="N_W_75" type="low_priority" route="N_W" depart="471.0" departLane="random" departSpeed="10" />
    <vehicle id="W_E_76" type="low_priority" route="W_E" depart="472.0" departLane="random" departSpeed="10" />
    <vehicle id="S_E_77" type="low_priority" route="S_E" depart="473.0" departLane="random" departSpeed="10" />
    <vehicle id="N_S_78" type="low_priority" route="N_S" depart="483.0" departLane="random" departSpeed="10" />
    <vehicle id="E_S_79" type="low_priority" route="E_S" depart="485.0" departLane="random" departSpeed="10" />
    <vehicle id="W_S_80" type="low_priority" route="W_S" depart="490.0" departLane="random" departSpeed="10" />
    <vehicle id="N_S_81" type="low_priority" route="N_S" depart="496.0" departLane="random" departSpeed="10" />
    <vehicle id="S_E_82" type="low_priority" route="S_E" depart="499.0" departLane="random" departSpeed="10" />
    <vehicle id="S_N_83" type="low_priority" route="S_N" depart="502.0" departLane="random" departSpeed="10" />
    <vehicle id="E_S_84" type="low_priority" route="E_S" depart="504.0" departLane="random" departSpeed="10" />
    <vehicle id="S_E_85" type="low_priority" route="S_E" depart="504.0" departLane="random" departSpeed="10" />
    <vehicle id="PS_W_86" type="high_priority" route="S_W" depart="505.0" departLane="random" departSpeed="10" />
    <vehicle id="E_W_87" type="low_priority" route="E_W" depart="506.0" departLane="random" departSpeed="10" />
    <vehicle id="E_W_88" type="low_priority" route="E_W" depart="507.0" departLane="random" departSpeed="10" />
    <vehicle id="PE_N_89" type="high_priority" route="E_N" depart="508.0" departLane="random" departSpeed="10" />
    <vehicle id="E_S_90" type="low_priority" route="E_S" depart="509.0" departLane="random" departSpeed="10" />
    <vehicle id="N_S_91" type="low_priority" route="N_S" depart="515.0" departLane="random" departSpeed="10" />
    <vehicle id="PW_N_92" type="high_priority" route="W_N" depart="521.0" departLane="random" departSpeed="10" />
    <vehicle id="E_S_93" type="low_priority" route="E_S" depart="523.0" departLane="random" departSpeed="10" />
    <vehicle id="S_N_94" type="low_priority" route="S_N" depart="523.0" departLane="random" departSpeed="10" />
    <vehicle id="N_E_95" type="low_priority" route="N_E" depart="523.0" departLane="random" departSpeed="10" />
    <vehicle id="W_E_96" type="low_priority" route="W_E" depart="527.0" departLane="random" departSpeed="10" />
    <vehicle id="W_E_97" type="low_priority" route="W_E" depart="527.0" departLane="random" departSpeed="10" />
    <vehicle id="E_S_98" type="low_priority" route="E_S" depart="532.0" departLane="random" departSpeed="10" />
    <vehicle id="S_N_99" type="low_priority" route="S_N" depart="536.0" departLane="random" departSpeed="10" />
    <vehicle id="E_S_100" type="low_priority" route="E_S" depart="540.0" departLane="random" departSpeed="10" />
    <vehicle id="E_N_101" type="low_priority" route="E_N" depart="541.0" departLane="random" departSpeed="10" />
    <vehicle id="W_N_102" type="low_priority" route="W_N" depart="544.0" departLane="random" departSpeed="10" />
    <vehicle id="W_E_103" type="low_priority" route="W_E" depart="548.0" departLane="random" departSpeed="10" />
    <vehicle id="W_N_104" type="low_priority" route="W_N" depart="551.0" departLane="random" departSpeed="10" />
    <vehicle id="S_W_105" type="low_priority" route="S_W" depart="559.0" departLane="random" departSpeed="10" />
    <vehicle id="N_E_106" type="low_priority" route="N_E" depart="561.0" departLane="random" departSpeed="10" />
    <vehicle id="E_N_107" type="low_priority" route="E_N" depart="561.0" departLane="random" departSpeed="10" />
    <vehicle id="S_W_108" type="low_priority" route="S_W" depart="562.0" departLane="random" departSpeed="10" />
    <vehicle id="W_E_109" type="low_priority" route="W_E" depart="562.0" departLane="random" departSpeed="10" />
    <vehicle id="N_W_110" type="low_priority" route="N_W" depart="565.0" departLane="random" departSpeed="10" />
    <vehicle id="W_S_111" type="low_priority" route="W_S" depart="567.0" departLane="random" departSpeed="10" />
    <vehicle id="N_W_112" type="low_priority" route="N_W" depart="568.0" departLane="random" departSpeed="10" />
    <vehicle id="W_N_113" type="low_priority" route="W_N" depart="570.0" departLane="random" departSpeed="10" />
    <vehicle id="W_N_114" type="low_priority" route="W_N" depart="571.0" departLane="random" departSpeed="10" />
    <vehicle id="S_E_115" type="low_priority" route="S_E" depart="577.0" departLane="random" departSpeed="10" />
    <vehicle id="E_W_116" type="low_priority" route="E_W" depart="584.0" departLane="random" departSpeed="10" />
    <vehicle id="W_N_117" type="low_priority" route="W_N" depart="584.0" departLane="random" departSpeed="10" />
    <vehicle id="N_S_118" type="low_priority" route="N_S" depart="590.0" departLane="random" departSpeed="10" />
    <vehicle id="E_W_119" type="low_priority" route="E_W" depart="592.0" departLane="random" departSpeed="10" />
    <vehicle id="E_N_120" type="low_priority" route="E_N" depart="593.0" departLane="random" departSpeed="10" />
    <vehicle id="N_S_121" type="low_priority" route="N_S" depart="593.0" departLane="random" departSpeed="10" />
    <vehicle id="S_N_122" type="low_priority" route="S_N" depart="594.0" departLane="random" departSpeed="10" />
    <vehicle id="S_E_123" type="low_priority" route="S_E" depart="594.0" departLane="random" departSpeed="10" />
    <vehicle id="W_S_124" type="low_priority" route="W_S" depart="596.0" departLane="random" departSpeed="10" />
    <vehicle id="N_E_125" type="low_priority" route="N_E" depart="596.0" departLane="random" departSpeed="10" />
    <vehicle id="S_E_126" type="low_priority" route="S_E" depart="599.0" departLane="random" departSpeed="10" />
    <vehicle id="N_W_127" type="low_priority" route="N_W" depart="599.0" departLane="random" departSpeed="10" />
    <vehicle id="E_S_128" type="low_priority" route="E_S" depart="606.0" departLane="random" departSpeed="10" />
    <vehicle id="PW_E_129" type="high_priority" route="W_E" depart="608.0" departLane="random" departSpeed="10" />
    <vehicle id="E_N_130" type="low_priority" route="E_N" depart="609.0" departLane="random" departSpeed="10" />
    <vehicle id="S_W_131" type="low_priority" route="S_W" depart="612.0" departLane="random" departSpeed="10" />
    <vehicle id="E_N_132" type="low_priority" route="E_N" depart="614.0" departLane="random" departSpeed="10" />
    <vehicle id="N_E_133" type="low_priority" route="N_E" depart="614.0" departLane="random" departSpeed="10" />
    <vehicle id="E_N_134" type="low_priority" route="E_N" depart="618.0" departLane="random" departSpeed="10" />
    <vehicle id="PW_N_135" type="high_priority" route="W_N" depart="623.0" departLane="random" departSpeed="10" />
    <vehicle id="E_N_136" type="low_priority" route="E_N" depart="625.0" departLane="random" departSpeed="10" />
    <vehicle id="PS_N_137" type="high_priority" route="S_N" depart="630.0" departLane="random" departSpeed="10" />
    <vehicle id="PW_S_138" type="high_priority" route="W_S" depart="632.0" departLane="random" departSpeed="10" />
    <vehicle id="S_N_139" type="low_priority" route="S_N" depart="634.0" departLane="random" departSpeed="10" />
    <vehicle id="E_N_140" type="low_priority" route="E_N" depart="635.0" departLane="random" departSpeed="10" />
    <vehicle id="W_E_141" type="low_priority" route="W_E" depart="636.0" departLane="random" departSpeed="10" />
    <vehicle id="W_E_142" type="low_priority" route="W_E" depart="640.0" departLane="random" departSpeed="10" />
    <vehicle id="E_W_143" type="low_priority" route="E_W" depart="643.0" departLane="random" departSpeed="10" />
    <vehicle id="S_E_144" type="low_priority" route="S_E" depart="645.0" departLane="random" departSpeed="10" />
    <vehicle id="S_E_145" type="low_priority" route="S_E" depart="645.0" departLane="random" departSpeed="10" />
    <vehicle id="N_E_146" type="low_priority" route="N_E" depart="646.0" departLane="random" departSpeed="10" />
    <vehicle id="S_W_147" type="low_priority" route="S_W" depart="653.0" departLane="random" departSpeed="10" />
    <vehicle id="W_S_148" type="low_priority" route="W_S" depart="654.0" departLane="random" departSpeed="10" />
    <vehicle id="W_S_149" type="low_priority" route="W_S" depart="654.0" departLane="random" departSpeed="10" />
    <vehicle id="N_S_150" type="low_priority" route="N_S" depart="663.0" departLane="random" departSpeed="10" />
    <vehicle id="E_S_151" type="low_priority" route="E_S" depart="663.0" departLane="random" departSpeed="10" />
    <vehicle id="S_E_152" type="low_priority" route="S_E" depart="664.0" departLane="random" departSpeed="10" />
    <vehicle id="N_S_153" type="low_priority" route="N_S" depart="664.0" departLane="random" departSpeed="10" />
    <vehicle id="E_W_154" type="low_priority" route="E_W" depart="669.0" departLane="random" departSpeed="10" />
    <vehicle id="S_E_155" type="low_priority" route="S_E" depart="670.0" departLane="random" departSpeed="10" />
    <vehicle id="W_E_156" type="low_priority" route="W_E" depart="673.0" departLane="random" departSpeed="10" />
    <vehicle id="E_W_157" type="low_priority" route="E_W" depart="683.0" departLane="random" departSpeed="10" />
    <vehicle id="N_W_158" type="low_priority" route="N_W" depart="685.0" departLane="random" departSpeed="10" />
    <vehicle id="E_W_159" type="low_priority" route="E_W" depart="685.0" departLane="random" departSpeed="10" />
    <vehicle id="N_W_160" type="low_priority" route="N_W" depart="686.0" departLane="random" departSpeed="10" />
    <vehicle id="N_W_161" type="low_priority" route="N_W" depart="686.0" departLane="random" departSpeed="10" />
    <vehicle id="W_N_162" type="low_priority" route="W_N" depart="690.0" departLane="random" departSpeed="10" />
    <vehicle id="PS_N_163" type="high_priority" route="S_N" depart="693.0" departLane="random" departSpeed="10" />
    <vehicle id="N_S_164" type="low_priority" route="N_S" depart="694.0" departLane="random" departSpeed="10" />
    <vehicle id="E_S_165" type="low_priority" route="E_S" depart="697.0" departLane="random" departSpeed="10" />
    <vehicle id="PW_N_166" type="high_priority" route="W_N" depart="698.0" departLane="random" departSpeed="10" />
    <vehicle id="W_S_167" type="low_priority" route="W_S" depart="699.0" departLane="random" departSpeed="10" />
    <vehicle id="N_E_168" type="low_priority" route="N_E" depart="700.0" departLane="random" departSpeed="10" />
    <vehicle id="W_N_169" type="low_priority" route="W_N" depart="703.0" departLane="random" departSpeed="10" />
    <vehicle id="S_W_170" type="low_priority" route="S_W" depart="704.0" departLane="random" departSpeed="10" />
    <vehicle id="S_W_171" type="low_priority" route="S_W" depart="715.0" departLane="random" departSpeed="10" />
    <vehicle id="N_W_172" type="low_priority" route="N_W" depart="718.0" departLane="random" departSpeed="10" />
    <vehicle id="S_W_173" type="low_priority" route="S_W" depart="722.0" departLane="random" departSpeed="10" />
    <vehicle id="N_W_174" type="low_priority" route="N_W" depart="723.0" departLane="random" departSpeed="10" />
    <vehicle id="E_N_175" type="low_priority" route="E_N" depart="723.0" departLane="random" departSpeed="10" />
    <vehicle id="S_N_176" type="low_priority" route="S_N" depart="723.0" departLane="random" departSpeed="10" />
    <vehicle id="W_S_177" type="low_priority" route="W_S" depart="726.0" departLane="random" departSpeed="10" />
    <vehicle id="S_W_178" type="low_priority" route="S_W" depart="728.0" departLane="random" departSpeed="10" />
    <vehicle id="E_N_179" type="low_priority" route="E_N" depart="731.0" departLane="random" departSpeed="10" />
    <vehicle id="N_E_180" type="low_priority" route="N_E" depart="733.0" departLane="random" departSpeed="10" />
    <vehicle id="S_E_181" type="low_priority" route="S_E" depart="734.0" departLane="random" departSpeed="10" />
    <vehicle id="W_S_182" type="low_priority" route="W_S" depart="735.0" departLane="random" departSpeed="10" />
    <vehicle id="S_W_183" type="low_priority" route="S_W" depart="741.0" departLane="random" departSpeed="10" />
    <vehicle id="S_E_184" type="low_priority" route="S_E" depart="744.0" departLane="random" departSpeed="10" />
    <vehicle id="W_S_185" type="low_priority" route="W_S" depart="747.0" departLane="random" departSpeed="10" />
    <vehicle id="S_E_186" type="low_priority" route="S_E" depart="751.0" departLane="random" departSpeed="10" />
    <vehicle id="S_E_187" type="low_priority" route="S_E" depart="751.0" departLane="random" departSpeed="10" />
    <vehicle id="N_W_188" type="low_priority" route="N_W" depart="754.0" departLane="random" departSpeed="10" />
    <vehicle id="E_S_189" type="low_priority" route="E_S" depart="755.0" departLane="random" departSpeed="10" />
    <vehicle id="W_N_190" type="low_priority" route="W_N" depart="755.0" departLane="random" departSpeed="10" />
    <vehicle id="N_W_191" type="low_priority" route="N_W" depart="761.0" departLane="random" departSpeed="10" />
    <vehicle id="N_W_192" type="low_priority" route="N_W" depart="761.0" departLane="random" departSpeed="10" />
    <vehicle id="S_N_193" type="low_priority" route="S_N" depart="762.0" departLane="random" departSpeed="10" />
    <vehicle id="E_W_194" type="low_priority" route="E_W" depart="763.0" departLane="random" departSpeed="10" />
    <vehicle id="PS_W_195" type="high_priority" route="S_W" depart="767.0" departLane="random" departSpeed="10" />
    <vehicle id="N_S_196" type="low_priority" route="N_S" depart="772.0" departLane="random" departSpeed="10" />
    <vehicle id="PW_E_197" type="high_priority" route="W_E" depart="782.0" departLane="random" departSpeed="10" />
    <vehicle id="S_E_198" type="low_priority" route="S_E" depart="782.0" departLane="random" departSpeed="10" />
    <vehicle id="N_E_199" type="low_priority" route="N_E" depart="787.0" departLane="random" departSpeed="10" />
    <vehicle id="PN_S_200" type="high_priority" route="N_S" depart="788.0" departLane="random" departSpeed="10" />
    <vehicle id="N_W_201" type="low_priority" route="N_W" depart="789.0" departLane="random" departSpeed="10" />
    <vehicle id="S_E_202" type="low_priority" route="S_E" depart="789.0" departLane="random" departSpeed="10" />
    <vehicle id="W_N_203" type="low_priority" route="W_N" depart="798.0" departLane="random" departSpeed="10" />
    <vehicle id="S_W_204" type="low_priority" route="S_W" depart="800.0" departLane="random" departSpeed="10" />
    <vehicle id="W_E_205" type="low_priority" route="W_E" depart="802.0" departLane="random" departSpeed="10" />
    <vehicle id="S_E_206" type="low_priority" route="S_E" depart="803.0" departLane="random" departSpeed="10" />
    <vehicle id="S_E_207" type="low_priority" route="S_E" depart="803.0" departLane="random" departSpeed="10" />
    <vehicle id="E_W_208" type="low_priority" route="E_W" depart="810.0" departLane="random" departSpeed="10" />
    <vehicle id="W_N_209" type="low_priority" route="W_N" depart="814.0" departLane="random" departSpeed="10" />
    <vehicle id="N_E_210" type="low_priority" route="N_E" depart="815.0" departLane="random" departSpeed="10" />
    <vehicle id="N_W_211" type="low_priority" route="N_W" depart="815.0" departLane="random" departSpeed="10" />
    <vehicle id="E_N_212" type="low_priority" route="E_N" depart="818.0" departLane="random" departSpeed="10" />
    <vehicle id="W_E_213" type="low_priority" route="W_E" depart="821.0" departLane="random" departSpeed="10" />
    <vehicle id="N_W_214" type="low_priority" route="N_W" depart="822.0" departLane="random" departSpeed="10" />
    <vehicle id="W_N_215" type="low_priority" route="W_N" depart="827.0" departLane="random" departSpeed="10" />
    <vehicle id="S_E_216" type="low_priority" route="S_E" depart="830.0" departLane="random" departSpeed="10" />
    <vehicle id="E_S_217" type="low_priority" route="E_S" depart="830.0" departLane="random" departSpeed="10" />
    <vehicle id="S_W_218" type="low_priority" route="S_W" depart="833.0" departLane="random" departSpeed="10" />
    <vehicle id="E_W_219" type="low_priority" route="E_W" depart="833.0" departLane="random" departSpeed="10" />
    <vehicle id="E_N_220" type="low_priority" route="E_N" depart="836.0" departLane="random" departSpeed="10" />
    <vehicle id="W_S_221" type="low_priority" route="W_S" depart="836.0" departLane="random" departSpeed="10" />
    <vehicle id="N_S_222" type="low_priority" route="N_S" depart="836.0" departLane="random" departSpeed="10" />
    <vehicle id="W_N_223" type="low_priority" route="W_N" depart="838.0" departLane="random" departSpeed="10" />
    <vehicle id="S_N_224" type="low_priority" route="S_N" depart="840.0" departLane="random" departSpeed="10" />
    <vehicle id="W_S_225" type="low_priority" route="W_S" depart="843.0" departLane="random" departSpeed="10" />
    <vehicle id="N_W_226" type="low_priority" route="N_W" depart="844.0" departLane="random" departSpeed="10" />
    <vehicle id="S_N_227" type="low_priority" route="S_N" depart="845.0" departLane="random" departSpeed="10" />
    <vehicle id="S_N_228" type="low_priority" route="S_N" depart="846.0" departLane="random" departSpeed="10" />
    <vehicle id="E_N_229" type="low_priority" route="E_N" depart="846.0" departLane="random" departSpeed="10" />
    <vehicle id="S_E_230" type="low_priority" route="S_E" depart="857.0" departLane="random" departSpeed="10" />
    <vehicle id="W_E_231" type="low_priority" route="W_E" depart="858.0" departLane="random" departSpeed="10" />
    <vehicle id="S_E_232" type="low_priority" route="S_E" depart="865.0" departLane="random" departSpeed="10" />
    <vehicle id="N_E_233" type="low_priority" route="N_E" depart="867.0" departLane="random" departSpeed="10" />
    <vehicle id="E_S_234" type="low_priority" route="E_S" depart="868.0" departLane="random" departSpeed="10" />
    <vehicle id="W_E_235" type="low_priority" route="W_E" depart="871.0" departLane="random" departSpeed="10" />
    <vehicle id="N_W_236" type="low_priority" route="N_W" depart="875.0" departLane="random" departSpeed="10" />
    <vehicle id="W_S_237" type="low_priority" route="W_S" depart="878.0" departLane="random" departSpeed="10" />
    <vehicle id="W_N_238" type="low_priority" route="W_N" depart="879.0" departLane="random" departSpeed="10" />
    <vehicle id="N_S_239" type="low_priority" route="N_S" depart="881.0" departLane="random" departSpeed="10" />
    <vehicle id="E_S_240" type="low_priority" route="E_S" depart="885.0" departLane="random" departSpeed="10" />
    <vehicle id="W_E_241" type="low_priority" route="W_E" depart="887.0" departLane="random" departSpeed="10" />
    <vehicle id="S_N_242" type="low_priority" route="S_N" depart="890.0" departLane="random" departSpeed="10" />
    <vehicle id="W_N_243" type="low_priority" route="W_N" depart="890.0" departLane="random" departSpeed="10" />
    <vehicle id="S_W_244" type="low_priority" route="S_W" depart="894.0" departLane="random" departSpeed="10" />
    <vehicle id="E_S_245" type="low_priority" route="E_S" depart="897.0" departLane="random" departSpeed="10" />
    <vehicle id="N_W_246" type="low_priority" route="N_W" depart="898.0" departLane="random" departSpeed="10" />
    <vehicle id="N_E_247" type="low_priority" route="N_E" depart="902.0" departLane="random" departSpeed="10" />
    <vehicle id="S_E_248" type="low_priority" route="S_E" depart="905.0" departLane="random" departSpeed="10" />